c81 data: labelAirfoil+1, "IEA-15-240-RWT_AeroDyn15_Polar_00.c81", free format;
c81 data: labelAirfoil+2, "IEA-15-240-RWT_AeroDyn15_Polar_01.c81", free format;
c81 data: labelAirfoil+3, "IEA-15-240-RWT_AeroDyn15_Polar_02.c81", free format;
c81 data: labelAirfoil+4, "IEA-15-240-RWT_AeroDyn15_Polar_03.c81", free format;
c81 data: labelAirfoil+5, "IEA-15-240-RWT_AeroDyn15_Polar_04.c81", free format;
c81 data: labelAirfoil+6, "IEA-15-240-RWT_AeroDyn15_Polar_05.c81", free format;
c81 data: labelAirfoil+7, "IEA-15-240-RWT_AeroDyn15_Polar_06.c81", free format;
c81 data: labelAirfoil+8, "IEA-15-240-RWT_AeroDyn15_Polar_07.c81", free format;
c81 data: labelAirfoil+9, "IEA-15-240-RWT_AeroDyn15_Polar_08.c81", free format;
c81 data: labelAirfoil+10, "IEA-15-240-RWT_AeroDyn15_Polar_09.c81", free format;
c81 data: labelAirfoil+11, "IEA-15-240-RWT_AeroDyn15_Polar_10.c81", free format;
c81 data: labelAirfoil+12, "IEA-15-240-RWT_AeroDyn15_Polar_11.c81", free format;
c81 data: labelAirfoil+13, "IEA-15-240-RWT_AeroDyn15_Polar_12.c81", free format;
c81 data: labelAirfoil+14, "IEA-15-240-RWT_AeroDyn15_Polar_13.c81", free format;
c81 data: labelAirfoil+15, "IEA-15-240-RWT_AeroDyn15_Polar_14.c81", free format;
c81 data: labelAirfoil+16, "IEA-15-240-RWT_AeroDyn15_Polar_15.c81", free format;
c81 data: labelAirfoil+17, "IEA-15-240-RWT_AeroDyn15_Polar_16.c81", free format;
c81 data: labelAirfoil+18, "IEA-15-240-RWT_AeroDyn15_Polar_17.c81", free format;
c81 data: labelAirfoil+19, "IEA-15-240-RWT_AeroDyn15_Polar_18.c81", free format;
c81 data: labelAirfoil+20, "IEA-15-240-RWT_AeroDyn15_Polar_19.c81", free format;
c81 data: labelAirfoil+21, "IEA-15-240-RWT_AeroDyn15_Polar_20.c81", free format;
c81 data: labelAirfoil+22, "IEA-15-240-RWT_AeroDyn15_Polar_21.c81", free format;
c81 data: labelAirfoil+23, "IEA-15-240-RWT_AeroDyn15_Polar_22.c81", free format;
c81 data: labelAirfoil+24, "IEA-15-240-RWT_AeroDyn15_Polar_23.c81", free format;
c81 data: labelAirfoil+25, "IEA-15-240-RWT_AeroDyn15_Polar_24.c81", free format;
c81 data: labelAirfoil+26, "IEA-15-240-RWT_AeroDyn15_Polar_25.c81", free format;
c81 data: labelAirfoil+27, "IEA-15-240-RWT_AeroDyn15_Polar_26.c81", free format;
c81 data: labelAirfoil+28, "IEA-15-240-RWT_AeroDyn15_Polar_27.c81", free format;
c81 data: labelAirfoil+29, "IEA-15-240-RWT_AeroDyn15_Polar_28.c81", free format;
c81 data: labelAirfoil+30, "IEA-15-240-RWT_AeroDyn15_Polar_29.c81", free format;
c81 data: labelAirfoil+31, "IEA-15-240-RWT_AeroDyn15_Polar_30.c81", free format;
c81 data: labelAirfoil+32, "IEA-15-240-RWT_AeroDyn15_Polar_31.c81", free format;
c81 data: labelAirfoil+33, "IEA-15-240-RWT_AeroDyn15_Polar_32.c81", free format;
c81 data: labelAirfoil+34, "IEA-15-240-RWT_AeroDyn15_Polar_33.c81", free format;
c81 data: labelAirfoil+35, "IEA-15-240-RWT_AeroDyn15_Polar_34.c81", free format;
c81 data: labelAirfoil+36, "IEA-15-240-RWT_AeroDyn15_Polar_35.c81", free format;
c81 data: labelAirfoil+37, "IEA-15-240-RWT_AeroDyn15_Polar_36.c81", free format;
c81 data: labelAirfoil+38, "IEA-15-240-RWT_AeroDyn15_Polar_37.c81", free format;
c81 data: labelAirfoil+39, "IEA-15-240-RWT_AeroDyn15_Polar_38.c81", free format;
c81 data: labelAirfoil+40, "IEA-15-240-RWT_AeroDyn15_Polar_39.c81", free format;
c81 data: labelAirfoil+41, "IEA-15-240-RWT_AeroDyn15_Polar_40.c81", free format;
c81 data: labelAirfoil+42, "IEA-15-240-RWT_AeroDyn15_Polar_41.c81", free format;
c81 data: labelAirfoil+43, "IEA-15-240-RWT_AeroDyn15_Polar_42.c81", free format;
c81 data: labelAirfoil+44, "IEA-15-240-RWT_AeroDyn15_Polar_43.c81", free format;
c81 data: labelAirfoil+45, "IEA-15-240-RWT_AeroDyn15_Polar_44.c81", free format;
c81 data: labelAirfoil+46, "IEA-15-240-RWT_AeroDyn15_Polar_45.c81", free format;
c81 data: labelAirfoil+47, "IEA-15-240-RWT_AeroDyn15_Polar_46.c81", free format;
c81 data: labelAirfoil+48, "IEA-15-240-RWT_AeroDyn15_Polar_47.c81", free format;
c81 data: labelAirfoil+49, "IEA-15-240-RWT_AeroDyn15_Polar_48.c81", free format;
c81 data: labelAirfoil+50, "IEA-15-240-RWT_AeroDyn15_Polar_49.c81", free format;
