IEA-15-240-RWT_AeroDyn15_Polar_21; 2 361 2 361 2 361
                0.0000      1.0000
   -180.00      0.0000      0.0000
   -179.00      0.0286      0.0286
   -178.00      0.0573      0.0573
   -177.00      0.0859      0.0859
   -176.00      0.1146      0.1146
   -175.00      0.1432      0.1432
   -174.00      0.1719      0.1719
   -173.00      0.2005      0.2005
   -172.00      0.2291      0.2291
   -171.00      0.2578      0.2578
   -170.00      0.2864      0.2864
   -169.00      0.3151      0.3151
   -168.00      0.3437      0.3437
   -167.00      0.3724      0.3724
   -166.00      0.4010      0.4010
   -165.00      0.4296      0.4296
   -164.00      0.4583      0.4583
   -163.00      0.4869      0.4869
   -162.00      0.5156      0.5156
   -161.00      0.5442      0.5442
   -160.00      0.5729      0.5729
   -159.00      0.6015      0.6015
   -158.00      0.6301      0.6301
   -157.00      0.6588      0.6588
   -156.00      0.6874      0.6874
   -155.00      0.7161      0.7161
   -154.00      0.7447      0.7447
   -153.00      0.7734      0.7734
   -152.00      0.8043      0.8043
   -151.00      0.8352      0.8352
   -150.00      0.8593      0.8593
   -149.00      0.8779      0.8779
   -148.00      0.8933      0.8933
   -147.00      0.8997      0.8997
   -146.00      0.8900      0.8900
   -145.00      0.8691      0.8691
   -144.00      0.8489      0.8489
   -143.00      0.8334      0.8334
   -142.00      0.8185      0.8185
   -141.00      0.8037      0.8037
   -140.00      0.7891      0.7891
   -139.00      0.7746      0.7746
   -138.00      0.7602      0.7602
   -137.00      0.7460      0.7460
   -136.00      0.7319      0.7319
   -135.00      0.7178      0.7178
   -134.00      0.7039      0.7039
   -133.00      0.6900      0.6900
   -132.00      0.6761      0.6761
   -131.00      0.6621      0.6621
   -130.00      0.6481      0.6481
   -129.00      0.6339      0.6339
   -128.00      0.6197      0.6197
   -127.00      0.6054      0.6054
   -126.00      0.5909      0.5909
   -125.00      0.5764      0.5764
   -124.00      0.5617      0.5617
   -123.00      0.5469      0.5469
   -122.00      0.5317      0.5317
   -121.00      0.5164      0.5164
   -120.00      0.5009      0.5009
   -119.00      0.4853      0.4853
   -118.00      0.4695      0.4695
   -117.00      0.4536      0.4536
   -116.00      0.4376      0.4376
   -115.00      0.4214      0.4214
   -114.00      0.4052      0.4052
   -113.00      0.3887      0.3887
   -112.00      0.3721      0.3721
   -111.00      0.3554      0.3554
   -110.00      0.3386      0.3386
   -109.00      0.3216      0.3216
   -108.00      0.3046      0.3046
   -107.00      0.2875      0.2875
   -106.00      0.2703      0.2703
   -105.00      0.2532      0.2532
   -104.00      0.2360      0.2360
   -103.00      0.2187      0.2187
   -102.00      0.2015      0.2015
   -101.00      0.1842      0.1842
   -100.00      0.1670      0.1670
    -99.00      0.1499      0.1499
    -98.00      0.1328      0.1328
    -97.00      0.1158      0.1158
    -96.00      0.0989      0.0989
    -95.00      0.0821      0.0821
    -94.00      0.0654      0.0654
    -93.00      0.0489      0.0489
    -92.00      0.0325      0.0325
    -91.00      0.0163      0.0163
    -90.00     -0.0000     -0.0000
    -89.00     -0.0163     -0.0163
    -88.00     -0.0325     -0.0325
    -87.00     -0.0489     -0.0489
    -86.00     -0.0654     -0.0654
    -85.00     -0.0821     -0.0821
    -84.00     -0.0989     -0.0989
    -83.00     -0.1158     -0.1158
    -82.00     -0.1328     -0.1328
    -81.00     -0.1499     -0.1499
    -80.00     -0.1670     -0.1670
    -79.00     -0.1842     -0.1842
    -78.00     -0.2015     -0.2015
    -77.00     -0.2187     -0.2187
    -76.00     -0.2360     -0.2360
    -75.00     -0.2532     -0.2532
    -74.00     -0.2703     -0.2703
    -73.00     -0.2875     -0.2875
    -72.00     -0.3046     -0.3046
    -71.00     -0.3216     -0.3216
    -70.00     -0.3386     -0.3386
    -69.00     -0.3554     -0.3554
    -68.00     -0.3721     -0.3721
    -67.00     -0.3887     -0.3887
    -66.00     -0.4052     -0.4052
    -65.00     -0.4214     -0.4214
    -64.00     -0.4376     -0.4376
    -63.00     -0.4536     -0.4536
    -62.00     -0.4695     -0.4695
    -61.00     -0.4853     -0.4853
    -60.00     -0.5009     -0.5009
    -59.00     -0.5164     -0.5164
    -58.00     -0.5317     -0.5317
    -57.00     -0.5469     -0.5469
    -56.00     -0.5617     -0.5617
    -55.00     -0.5764     -0.5764
    -54.00     -0.5909     -0.5909
    -53.00     -0.6054     -0.6054
    -52.00     -0.6197     -0.6197
    -51.00     -0.6339     -0.6339
    -50.00     -0.6481     -0.6481
    -49.00     -0.6621     -0.6621
    -48.00     -0.6761     -0.6761
    -47.00     -0.6898     -0.6898
    -46.00     -0.7036     -0.7036
    -45.00     -0.7178     -0.7178
    -44.00     -0.7331     -0.7331
    -43.00     -0.7489     -0.7489
    -42.00     -0.7648     -0.7648
    -41.00     -0.7805     -0.7805
    -40.00     -0.7962     -0.7962
    -39.00     -0.8120     -0.8120
    -38.00     -0.8278     -0.8278
    -37.00     -0.8436     -0.8436
    -36.00     -0.8600     -0.8600
    -35.00     -0.8757     -0.8757
    -34.00     -0.8920     -0.8920
    -33.00     -0.9126     -0.9126
    -32.00     -0.9429     -0.9429
    -31.00     -0.9824     -0.9824
    -30.00     -1.0254     -1.0254
    -29.00     -1.0725     -1.0725
    -28.00     -1.1147     -1.1147
    -27.00     -1.1207     -1.1207
    -26.00     -1.1219     -1.1219
    -25.00     -1.1228     -1.1228
    -24.00     -1.1231     -1.1231
    -23.00     -1.1242     -1.1242
    -22.00     -1.1244     -1.1244
    -21.00     -1.1247     -1.1247
    -20.00     -1.1262     -1.1262
    -19.00     -1.1276     -1.1276
    -18.00     -1.1284     -1.1284
    -17.00     -1.1253     -1.1253
    -16.00     -1.1218     -1.1218
    -15.00     -1.1194     -1.1194
    -14.00     -1.1162     -1.1162
    -13.00     -1.1061     -1.1061
    -12.00     -1.0874     -1.0874
    -11.00     -1.0061     -1.0061
    -10.00     -0.9171     -0.9171
     -9.00     -0.8049     -0.8049
     -8.00     -0.6921     -0.6921
     -7.00     -0.5734     -0.5734
     -6.00     -0.4517     -0.4517
     -5.00     -0.3155     -0.3155
     -4.00     -0.1773     -0.1773
     -3.00     -0.0360     -0.0360
     -2.00      0.1053      0.1053
     -1.00      0.2450      0.2450
      0.00      0.3830      0.3830
      1.00      0.5194      0.5194
      2.00      0.6538      0.6538
      3.00      0.7865      0.7865
      4.00      0.9177      0.9177
      5.00      1.0468      1.0468
      6.00      1.1739      1.1739
      7.00      1.2987      1.2987
      8.00      1.4198      1.4198
      9.00      1.5368      1.5368
     10.00      1.6489      1.6489
     11.00      1.7518      1.7518
     12.00      1.8447      1.8447
     13.00      1.9239      1.9239
     14.00      1.9754      1.9754
     15.00      1.9992      1.9992
     16.00      1.9971      1.9971
     17.00      1.9649      1.9649
     18.00      1.9283      1.9283
     19.00      1.8442      1.8442
     20.00      1.7596      1.7596
     21.00      1.6924      1.6924
     22.00      1.6278      1.6278
     23.00      1.5629      1.5629
     24.00      1.4994      1.4994
     25.00      1.4702      1.4702
     26.00      1.4416      1.4416
     27.00      1.4124      1.4124
     28.00      1.3839      1.3839
     29.00      1.3685      1.3685
     30.00      1.3540      1.3540
     31.00      1.3375      1.3375
     32.00      1.3196      1.3196
     33.00      1.2997      1.2997
     34.00      1.2763      1.2763
     35.00      1.2502      1.2502
     36.00      1.2250      1.2250
     37.00      1.2019      1.2019
     38.00      1.1795      1.1795
     39.00      1.1573      1.1573
     40.00      1.1351      1.1351
     41.00      1.1130      1.1130
     42.00      1.0911      1.0911
     43.00      1.0689      1.0689
     44.00      1.0469      1.0469
     45.00      1.0255      1.0255
     46.00      1.0052      1.0052
     47.00      0.9855      0.9855
     48.00      0.9658      0.9658
     49.00      0.9458      0.9458
     50.00      0.9258      0.9258
     51.00      0.9056      0.9056
     52.00      0.8853      0.8853
     53.00      0.8648      0.8648
     54.00      0.8442      0.8442
     55.00      0.8234      0.8234
     56.00      0.8025      0.8025
     57.00      0.7813      0.7813
     58.00      0.7596      0.7596
     59.00      0.7377      0.7377
     60.00      0.7156      0.7156
     61.00      0.6933      0.6933
     62.00      0.6707      0.6707
     63.00      0.6480      0.6480
     64.00      0.6251      0.6251
     65.00      0.6021      0.6021
     66.00      0.5788      0.5788
     67.00      0.5553      0.5553
     68.00      0.5316      0.5316
     69.00      0.5078      0.5078
     70.00      0.4837      0.4837
     71.00      0.4594      0.4594
     72.00      0.4351      0.4351
     73.00      0.4107      0.4107
     74.00      0.3862      0.3862
     75.00      0.3617      0.3617
     76.00      0.3371      0.3371
     77.00      0.3125      0.3125
     78.00      0.2878      0.2878
     79.00      0.2632      0.2632
     80.00      0.2386      0.2386
     81.00      0.2141      0.2141
     82.00      0.1897      0.1897
     83.00      0.1654      0.1654
     84.00      0.1413      0.1413
     85.00      0.1173      0.1173
     86.00      0.0935      0.0935
     87.00      0.0698      0.0698
     88.00      0.0455      0.0455
     89.00      0.0214      0.0214
     90.00      0.0000      0.0000
     91.00     -0.0175     -0.0175
     92.00     -0.0331     -0.0331
     93.00     -0.0489     -0.0489
     94.00     -0.0654     -0.0654
     95.00     -0.0821     -0.0821
     96.00     -0.0989     -0.0989
     97.00     -0.1158     -0.1158
     98.00     -0.1328     -0.1328
     99.00     -0.1499     -0.1499
    100.00     -0.1670     -0.1670
    101.00     -0.1842     -0.1842
    102.00     -0.2015     -0.2015
    103.00     -0.2187     -0.2187
    104.00     -0.2360     -0.2360
    105.00     -0.2532     -0.2532
    106.00     -0.2703     -0.2703
    107.00     -0.2875     -0.2875
    108.00     -0.3046     -0.3046
    109.00     -0.3216     -0.3216
    110.00     -0.3386     -0.3386
    111.00     -0.3554     -0.3554
    112.00     -0.3721     -0.3721
    113.00     -0.3887     -0.3887
    114.00     -0.4052     -0.4052
    115.00     -0.4214     -0.4214
    116.00     -0.4376     -0.4376
    117.00     -0.4536     -0.4536
    118.00     -0.4695     -0.4695
    119.00     -0.4853     -0.4853
    120.00     -0.5009     -0.5009
    121.00     -0.5164     -0.5164
    122.00     -0.5317     -0.5317
    123.00     -0.5469     -0.5469
    124.00     -0.5617     -0.5617
    125.00     -0.5764     -0.5764
    126.00     -0.5909     -0.5909
    127.00     -0.6054     -0.6054
    128.00     -0.6197     -0.6197
    129.00     -0.6339     -0.6339
    130.00     -0.6481     -0.6481
    131.00     -0.6621     -0.6621
    132.00     -0.6761     -0.6761
    133.00     -0.6900     -0.6900
    134.00     -0.7039     -0.7039
    135.00     -0.7178     -0.7178
    136.00     -0.7319     -0.7319
    137.00     -0.7460     -0.7460
    138.00     -0.7602     -0.7602
    139.00     -0.7746     -0.7746
    140.00     -0.7891     -0.7891
    141.00     -0.8037     -0.8037
    142.00     -0.8185     -0.8185
    143.00     -0.8334     -0.8334
    144.00     -0.8489     -0.8489
    145.00     -0.8691     -0.8691
    146.00     -0.8900     -0.8900
    147.00     -0.8997     -0.8997
    148.00     -0.8933     -0.8933
    149.00     -0.8779     -0.8779
    150.00     -0.8593     -0.8593
    151.00     -0.8352     -0.8352
    152.00     -0.8043     -0.8043
    153.00     -0.7734     -0.7734
    154.00     -0.7447     -0.7447
    155.00     -0.7161     -0.7161
    156.00     -0.6874     -0.6874
    157.00     -0.6588     -0.6588
    158.00     -0.6301     -0.6301
    159.00     -0.6015     -0.6015
    160.00     -0.5729     -0.5729
    161.00     -0.5442     -0.5442
    162.00     -0.5156     -0.5156
    163.00     -0.4869     -0.4869
    164.00     -0.4583     -0.4583
    165.00     -0.4296     -0.4296
    166.00     -0.4010     -0.4010
    167.00     -0.3724     -0.3724
    168.00     -0.3437     -0.3437
    169.00     -0.3151     -0.3151
    170.00     -0.2864     -0.2864
    171.00     -0.2578     -0.2578
    172.00     -0.2291     -0.2291
    173.00     -0.2005     -0.2005
    174.00     -0.1719     -0.1719
    175.00     -0.1432     -0.1432
    176.00     -0.1146     -0.1146
    177.00     -0.0859     -0.0859
    178.00     -0.0573     -0.0573
    179.00     -0.0286     -0.0286
    180.00      0.0000      0.0000
                0.0000      1.0000
   -180.00      0.0253      0.0253
   -179.00      0.0255      0.0255
   -178.00      0.0260      0.0260
   -177.00      0.0265      0.0265
   -176.00      0.0273      0.0273
   -175.00      0.0283      0.0283
   -174.00      0.0296      0.0296
   -173.00      0.0309      0.0309
   -172.00      0.0326      0.0326
   -171.00      0.0346      0.0346
   -170.00      0.0371      0.0371
   -169.00      0.0404      0.0404
   -168.00      0.0448      0.0448
   -167.00      0.0521      0.0521
   -166.00      0.0625      0.0625
   -165.00      0.0736      0.0736
   -164.00      0.0850      0.0850
   -163.00      0.0974      0.0974
   -162.00      0.1105      0.1105
   -161.00      0.1241      0.1241
   -160.00      0.1385      0.1385
   -159.00      0.1535      0.1535
   -158.00      0.1691      0.1691
   -157.00      0.1853      0.1853
   -156.00      0.2020      0.2020
   -155.00      0.2192      0.2192
   -154.00      0.2369      0.2369
   -153.00      0.2550      0.2550
   -152.00      0.2737      0.2737
   -151.00      0.2928      0.2928
   -150.00      0.3124      0.3124
   -149.00      0.3325      0.3325
   -148.00      0.3530      0.3530
   -147.00      0.3738      0.3738
   -146.00      0.3947      0.3947
   -145.00      0.4158      0.4158
   -144.00      0.4373      0.4373
   -143.00      0.4592      0.4592
   -142.00      0.4814      0.4814
   -141.00      0.5038      0.5038
   -140.00      0.5262      0.5262
   -139.00      0.5487      0.5487
   -138.00      0.5713      0.5713
   -137.00      0.5940      0.5940
   -136.00      0.6168      0.6168
   -135.00      0.6396      0.6396
   -134.00      0.6624      0.6624
   -133.00      0.6853      0.6853
   -132.00      0.7080      0.7080
   -131.00      0.7307      0.7307
   -130.00      0.7532      0.7532
   -129.00      0.7756      0.7756
   -128.00      0.7978      0.7978
   -127.00      0.8198      0.8198
   -126.00      0.8417      0.8417
   -125.00      0.8635      0.8635
   -124.00      0.8851      0.8851
   -123.00      0.9063      0.9063
   -122.00      0.9269      0.9269
   -121.00      0.9472      0.9472
   -120.00      0.9670      0.9670
   -119.00      0.9865      0.9865
   -118.00      1.0057      1.0057
   -117.00      1.0244      1.0244
   -116.00      1.0427      1.0427
   -115.00      1.0607      1.0607
   -114.00      1.0782      1.0782
   -113.00      1.0952      1.0952
   -112.00      1.1117      1.1117
   -111.00      1.1275      1.1275
   -110.00      1.1423      1.1423
   -109.00      1.1565      1.1565
   -108.00      1.1701      1.1701
   -107.00      1.1832      1.1832
   -106.00      1.1958      1.1958
   -105.00      1.2077      1.2077
   -104.00      1.2192      1.2192
   -103.00      1.2302      1.2302
   -102.00      1.2402      1.2402
   -101.00      1.2492      1.2492
   -100.00      1.2576      1.2576
    -99.00      1.2650      1.2650
    -98.00      1.2716      1.2716
    -97.00      1.2775      1.2775
    -96.00      1.2826      1.2826
    -95.00      1.2872      1.2872
    -94.00      1.2912      1.2912
    -93.00      1.2943      1.2943
    -92.00      1.2969      1.2969
    -91.00      1.2991      1.2991
    -90.00      1.3000      1.3000
    -89.00      1.2991      1.2991
    -88.00      1.2969      1.2969
    -87.00      1.2943      1.2943
    -86.00      1.2912      1.2912
    -85.00      1.2872      1.2872
    -84.00      1.2826      1.2826
    -83.00      1.2775      1.2775
    -82.00      1.2716      1.2716
    -81.00      1.2650      1.2650
    -80.00      1.2576      1.2576
    -79.00      1.2492      1.2492
    -78.00      1.2402      1.2402
    -77.00      1.2302      1.2302
    -76.00      1.2192      1.2192
    -75.00      1.2077      1.2077
    -74.00      1.1958      1.1958
    -73.00      1.1832      1.1832
    -72.00      1.1701      1.1701
    -71.00      1.1565      1.1565
    -70.00      1.1423      1.1423
    -69.00      1.1275      1.1275
    -68.00      1.1117      1.1117
    -67.00      1.0952      1.0952
    -66.00      1.0782      1.0782
    -65.00      1.0607      1.0607
    -64.00      1.0427      1.0427
    -63.00      1.0244      1.0244
    -62.00      1.0057      1.0057
    -61.00      0.9865      0.9865
    -60.00      0.9670      0.9670
    -59.00      0.9472      0.9472
    -58.00      0.9269      0.9269
    -57.00      0.9063      0.9063
    -56.00      0.8851      0.8851
    -55.00      0.8635      0.8635
    -54.00      0.8417      0.8417
    -53.00      0.8198      0.8198
    -52.00      0.7978      0.7978
    -51.00      0.7756      0.7756
    -50.00      0.7532      0.7532
    -49.00      0.7307      0.7307
    -48.00      0.7080      0.7080
    -47.00      0.6853      0.6853
    -46.00      0.6624      0.6624
    -45.00      0.6396      0.6396
    -44.00      0.6168      0.6168
    -43.00      0.5940      0.5940
    -42.00      0.5713      0.5713
    -41.00      0.5487      0.5487
    -40.00      0.5262      0.5262
    -39.00      0.5038      0.5038
    -38.00      0.4814      0.4814
    -37.00      0.4592      0.4592
    -36.00      0.4373      0.4373
    -35.00      0.4167      0.4167
    -34.00      0.3964      0.3964
    -33.00      0.3738      0.3738
    -32.00      0.3467      0.3467
    -31.00      0.3163      0.3163
    -30.00      0.2842      0.2842
    -29.00      0.2503      0.2503
    -28.00      0.2185      0.2185
    -27.00      0.2014      0.2014
    -26.00      0.1862      0.1862
    -25.00      0.1710      0.1710
    -24.00      0.1558      0.1558
    -23.00      0.1426      0.1426
    -22.00      0.1296      0.1296
    -21.00      0.1166      0.1166
    -20.00      0.1037      0.1037
    -19.00      0.0927      0.0927
    -18.00      0.0820      0.0820
    -17.00      0.0727      0.0727
    -16.00      0.0635      0.0635
    -15.00      0.0554      0.0554
    -14.00      0.0474      0.0474
    -13.00      0.0403      0.0403
    -12.00      0.0334      0.0334
    -11.00      0.0286      0.0286
    -10.00      0.0240      0.0240
     -9.00      0.0212      0.0212
     -8.00      0.0184      0.0184
     -7.00      0.0165      0.0165
     -6.00      0.0147      0.0147
     -5.00      0.0136      0.0136
     -4.00      0.0127      0.0127
     -3.00      0.0122      0.0122
     -2.00      0.0118      0.0118
     -1.00      0.0116      0.0116
      0.00      0.0116      0.0116
      1.00      0.0116      0.0116
      2.00      0.0117      0.0117
      3.00      0.0120      0.0120
      4.00      0.0122      0.0122
      5.00      0.0126      0.0126
      6.00      0.0130      0.0130
      7.00      0.0136      0.0136
      8.00      0.0142      0.0142
      9.00      0.0151      0.0151
     10.00      0.0161      0.0161
     11.00      0.0175      0.0175
     12.00      0.0194      0.0194
     13.00      0.0220      0.0220
     14.00      0.0263      0.0263
     15.00      0.0326      0.0326
     16.00      0.0419      0.0419
     17.00      0.0546      0.0546
     18.00      0.0678      0.0678
     19.00      0.0864      0.0864
     20.00      0.1057      0.1057
     21.00      0.1271      0.1271
     22.00      0.1488      0.1488
     23.00      0.1706      0.1706
     24.00      0.1920      0.1920
     25.00      0.2126      0.2126
     26.00      0.2331      0.2331
     27.00      0.2536      0.2536
     28.00      0.2741      0.2741
     29.00      0.2937      0.2937
     30.00      0.3133      0.3133
     31.00      0.3332      0.3332
     32.00      0.3533      0.3533
     33.00      0.3738      0.3738
     34.00      0.3946      0.3946
     35.00      0.4158      0.4158
     36.00      0.4373      0.4373
     37.00      0.4592      0.4592
     38.00      0.4814      0.4814
     39.00      0.5038      0.5038
     40.00      0.5262      0.5262
     41.00      0.5487      0.5487
     42.00      0.5713      0.5713
     43.00      0.5940      0.5940
     44.00      0.6168      0.6168
     45.00      0.6396      0.6396
     46.00      0.6624      0.6624
     47.00      0.6853      0.6853
     48.00      0.7080      0.7080
     49.00      0.7307      0.7307
     50.00      0.7532      0.7532
     51.00      0.7756      0.7756
     52.00      0.7978      0.7978
     53.00      0.8198      0.8198
     54.00      0.8417      0.8417
     55.00      0.8635      0.8635
     56.00      0.8851      0.8851
     57.00      0.9063      0.9063
     58.00      0.9269      0.9269
     59.00      0.9472      0.9472
     60.00      0.9670      0.9670
     61.00      0.9865      0.9865
     62.00      1.0057      1.0057
     63.00      1.0244      1.0244
     64.00      1.0427      1.0427
     65.00      1.0607      1.0607
     66.00      1.0782      1.0782
     67.00      1.0952      1.0952
     68.00      1.1117      1.1117
     69.00      1.1275      1.1275
     70.00      1.1423      1.1423
     71.00      1.1565      1.1565
     72.00      1.1701      1.1701
     73.00      1.1832      1.1832
     74.00      1.1958      1.1958
     75.00      1.2077      1.2077
     76.00      1.2192      1.2192
     77.00      1.2302      1.2302
     78.00      1.2402      1.2402
     79.00      1.2492      1.2492
     80.00      1.2576      1.2576
     81.00      1.2650      1.2650
     82.00      1.2716      1.2716
     83.00      1.2775      1.2775
     84.00      1.2826      1.2826
     85.00      1.2872      1.2872
     86.00      1.2912      1.2912
     87.00      1.2943      1.2943
     88.00      1.2969      1.2969
     89.00      1.2991      1.2991
     90.00      1.3000      1.3000
     91.00      1.2991      1.2991
     92.00      1.2969      1.2969
     93.00      1.2943      1.2943
     94.00      1.2912      1.2912
     95.00      1.2872      1.2872
     96.00      1.2826      1.2826
     97.00      1.2775      1.2775
     98.00      1.2716      1.2716
     99.00      1.2650      1.2650
    100.00      1.2576      1.2576
    101.00      1.2492      1.2492
    102.00      1.2402      1.2402
    103.00      1.2302      1.2302
    104.00      1.2192      1.2192
    105.00      1.2077      1.2077
    106.00      1.1958      1.1958
    107.00      1.1832      1.1832
    108.00      1.1701      1.1701
    109.00      1.1565      1.1565
    110.00      1.1423      1.1423
    111.00      1.1275      1.1275
    112.00      1.1117      1.1117
    113.00      1.0952      1.0952
    114.00      1.0782      1.0782
    115.00      1.0607      1.0607
    116.00      1.0427      1.0427
    117.00      1.0244      1.0244
    118.00      1.0057      1.0057
    119.00      0.9865      0.9865
    120.00      0.9670      0.9670
    121.00      0.9472      0.9472
    122.00      0.9269      0.9269
    123.00      0.9063      0.9063
    124.00      0.8851      0.8851
    125.00      0.8635      0.8635
    126.00      0.8417      0.8417
    127.00      0.8198      0.8198
    128.00      0.7978      0.7978
    129.00      0.7756      0.7756
    130.00      0.7532      0.7532
    131.00      0.7307      0.7307
    132.00      0.7080      0.7080
    133.00      0.6853      0.6853
    134.00      0.6624      0.6624
    135.00      0.6396      0.6396
    136.00      0.6168      0.6168
    137.00      0.5940      0.5940
    138.00      0.5713      0.5713
    139.00      0.5487      0.5487
    140.00      0.5262      0.5262
    141.00      0.5038      0.5038
    142.00      0.4814      0.4814
    143.00      0.4592      0.4592
    144.00      0.4373      0.4373
    145.00      0.4158      0.4158
    146.00      0.3947      0.3947
    147.00      0.3738      0.3738
    148.00      0.3530      0.3530
    149.00      0.3325      0.3325
    150.00      0.3124      0.3124
    151.00      0.2928      0.2928
    152.00      0.2737      0.2737
    153.00      0.2550      0.2550
    154.00      0.2369      0.2369
    155.00      0.2192      0.2192
    156.00      0.2020      0.2020
    157.00      0.1853      0.1853
    158.00      0.1691      0.1691
    159.00      0.1535      0.1535
    160.00      0.1385      0.1385
    161.00      0.1241      0.1241
    162.00      0.1105      0.1105
    163.00      0.0974      0.0974
    164.00      0.0850      0.0850
    165.00      0.0736      0.0736
    166.00      0.0625      0.0625
    167.00      0.0521      0.0521
    168.00      0.0448      0.0448
    169.00      0.0404      0.0404
    170.00      0.0371      0.0371
    171.00      0.0346      0.0346
    172.00      0.0326      0.0326
    173.00      0.0309      0.0309
    174.00      0.0296      0.0296
    175.00      0.0283      0.0283
    176.00      0.0273      0.0273
    177.00      0.0265      0.0265
    178.00      0.0260      0.0260
    179.00      0.0255      0.0255
    180.00      0.0253      0.0253
                0.0000      1.0000
   -180.00      0.0000      0.0000
   -179.00      0.0400      0.0400
   -178.00      0.0800      0.0800
   -177.00      0.1200      0.1200
   -176.00      0.1600      0.1600
   -175.00      0.2000      0.2000
   -174.00      0.2400      0.2400
   -173.00      0.2843      0.2843
   -172.00      0.3286      0.3286
   -171.00      0.3600      0.3600
   -170.00      0.3796      0.3796
   -169.00      0.3947      0.3947
   -168.00      0.4015      0.4015
   -167.00      0.4026      0.4026
   -166.00      0.4032      0.4032
   -165.00      0.4038      0.4038
   -164.00      0.4045      0.4045
   -163.00      0.4051      0.4051
   -162.00      0.4061      0.4061
   -161.00      0.4080      0.4080
   -160.00      0.4110      0.4110
   -159.00      0.4149      0.4149
   -158.00      0.4208      0.4208
   -157.00      0.4288      0.4288
   -156.00      0.4368      0.4368
   -155.00      0.4442      0.4442
   -154.00      0.4516      0.4516
   -153.00      0.4587      0.4587
   -152.00      0.4667      0.4667
   -151.00      0.4744      0.4744
   -150.00      0.4778      0.4778
   -149.00      0.4763      0.4763
   -148.00      0.4729      0.4729
   -147.00      0.4692      0.4692
   -146.00      0.4657      0.4657
   -145.00      0.4617      0.4617
   -144.00      0.4578      0.4578
   -143.00      0.4540      0.4540
   -142.00      0.4502      0.4502
   -141.00      0.4468      0.4468
   -140.00      0.4439      0.4439
   -139.00      0.4414      0.4414
   -138.00      0.4391      0.4391
   -137.00      0.4372      0.4372
   -136.00      0.4354      0.4354
   -135.00      0.4336      0.4336
   -134.00      0.4316      0.4316
   -133.00      0.4296      0.4296
   -132.00      0.4281      0.4281
   -131.00      0.4271      0.4271
   -130.00      0.4263      0.4263
   -129.00      0.4258      0.4258
   -128.00      0.4254      0.4254
   -127.00      0.4251      0.4251
   -126.00      0.4250      0.4250
   -125.00      0.4251      0.4251
   -124.00      0.4253      0.4253
   -123.00      0.4255      0.4255
   -122.00      0.4256      0.4256
   -121.00      0.4258      0.4258
   -120.00      0.4260      0.4260
   -119.00      0.4263      0.4263
   -118.00      0.4266      0.4266
   -117.00      0.4270      0.4270
   -116.00      0.4274      0.4274
   -115.00      0.4278      0.4278
   -114.00      0.4283      0.4283
   -113.00      0.4288      0.4288
   -112.00      0.4293      0.4293
   -111.00      0.4295      0.4295
   -110.00      0.4294      0.4294
   -109.00      0.4293      0.4293
   -108.00      0.4291      0.4291
   -107.00      0.4289      0.4289
   -106.00      0.4287      0.4287
   -105.00      0.4284      0.4284
   -104.00      0.4281      0.4281
   -103.00      0.4277      0.4277
   -102.00      0.4273      0.4273
   -101.00      0.4266      0.4266
   -100.00      0.4258      0.4258
    -99.00      0.4248      0.4248
    -98.00      0.4236      0.4236
    -97.00      0.4221      0.4221
    -96.00      0.4206      0.4206
    -95.00      0.4191      0.4191
    -94.00      0.4175      0.4175
    -93.00      0.4160      0.4160
    -92.00      0.4145      0.4145
    -91.00      0.4131      0.4131
    -90.00      0.4113      0.4113
    -89.00      0.4086      0.4086
    -88.00      0.4051      0.4051
    -87.00      0.4016      0.4016
    -86.00      0.3984      0.3984
    -85.00      0.3952      0.3952
    -84.00      0.3920      0.3920
    -83.00      0.3887      0.3887
    -82.00      0.3854      0.3854
    -81.00      0.3819      0.3819
    -80.00      0.3783      0.3783
    -79.00      0.3745      0.3745
    -78.00      0.3705      0.3705
    -77.00      0.3665      0.3665
    -76.00      0.3624      0.3624
    -75.00      0.3582      0.3582