IEA-15-240-RWT_AeroDyn15_Polar_30; 2 361 2 361 2 361
                0.0000      1.0000
   -180.00      0.0000      0.0000
   -179.00      0.0259      0.0259
   -178.00      0.0518      0.0518
   -177.00      0.0776      0.0776
   -176.00      0.1035      0.1035
   -175.00      0.1294      0.1294
   -174.00      0.1553      0.1553
   -173.00      0.1812      0.1812
   -172.00      0.2071      0.2071
   -171.00      0.2329      0.2329
   -170.00      0.2588      0.2588
   -169.00      0.2847      0.2847
   -168.00      0.3106      0.3106
   -167.00      0.3365      0.3365
   -166.00      0.3623      0.3623
   -165.00      0.3882      0.3882
   -164.00      0.4141      0.4141
   -163.00      0.4400      0.4400
   -162.00      0.4659      0.4659
   -161.00      0.4917      0.4917
   -160.00      0.5176      0.5176
   -159.00      0.5435      0.5435
   -158.00      0.5694      0.5694
   -157.00      0.5953      0.5953
   -156.00      0.6212      0.6212
   -155.00      0.6470      0.6470
   -154.00      0.6729      0.6729
   -153.00      0.6988      0.6988
   -152.00      0.7264      0.7264
   -151.00      0.7539      0.7539
   -150.00      0.7764      0.7764
   -149.00      0.7955      0.7955
   -148.00      0.8118      0.8118
   -147.00      0.8188      0.8188
   -146.00      0.8135      0.8135
   -145.00      0.8019      0.8019
   -144.00      0.7904      0.7904
   -143.00      0.7813      0.7813
   -142.00      0.7723      0.7723
   -141.00      0.7633      0.7633
   -140.00      0.7541      0.7541
   -139.00      0.7449      0.7449
   -138.00      0.7355      0.7355
   -137.00      0.7260      0.7260
   -136.00      0.7165      0.7165
   -135.00      0.7066      0.7066
   -134.00      0.6965      0.6965
   -133.00      0.6861      0.6861
   -132.00      0.6754      0.6754
   -131.00      0.6643      0.6643
   -130.00      0.6529      0.6529
   -129.00      0.6414      0.6414
   -128.00      0.6298      0.6298
   -127.00      0.6180      0.6180
   -126.00      0.6059      0.6059
   -125.00      0.5936      0.5936
   -124.00      0.5810      0.5810
   -123.00      0.5679      0.5679
   -122.00      0.5543      0.5543
   -121.00      0.5402      0.5402
   -120.00      0.5259      0.5259
   -119.00      0.5112      0.5112
   -118.00      0.4963      0.4963
   -117.00      0.4811      0.4811
   -116.00      0.4657      0.4657
   -115.00      0.4500      0.4500
   -114.00      0.4341      0.4341
   -113.00      0.4178      0.4178
   -112.00      0.4013      0.4013
   -111.00      0.3844      0.3844
   -110.00      0.3672      0.3672
   -109.00      0.3498      0.3498
   -108.00      0.3321      0.3321
   -107.00      0.3144      0.3144
   -106.00      0.2964      0.2964
   -105.00      0.2784      0.2784
   -104.00      0.2602      0.2602
   -103.00      0.2419      0.2419
   -102.00      0.2235      0.2235
   -101.00      0.2049      0.2049
   -100.00      0.1862      0.1862
    -99.00      0.1675      0.1675
    -98.00      0.1488      0.1488
    -97.00      0.1300      0.1300
    -96.00      0.1113      0.1113
    -95.00      0.0926      0.0926
    -94.00      0.0740      0.0740
    -93.00      0.0554      0.0554
    -92.00      0.0369      0.0369
    -91.00      0.0184      0.0184
    -90.00     -0.0000     -0.0000
    -89.00     -0.0184     -0.0184
    -88.00     -0.0369     -0.0369
    -87.00     -0.0554     -0.0554
    -86.00     -0.0740     -0.0740
    -85.00     -0.0926     -0.0926
    -84.00     -0.1113     -0.1113
    -83.00     -0.1300     -0.1300
    -82.00     -0.1488     -0.1488
    -81.00     -0.1675     -0.1675
    -80.00     -0.1862     -0.1862
    -79.00     -0.2049     -0.2049
    -78.00     -0.2235     -0.2235
    -77.00     -0.2419     -0.2419
    -76.00     -0.2602     -0.2602
    -75.00     -0.2784     -0.2784
    -74.00     -0.2964     -0.2964
    -73.00     -0.3144     -0.3144
    -72.00     -0.3321     -0.3321
    -71.00     -0.3498     -0.3498
    -70.00     -0.3672     -0.3672
    -69.00     -0.3844     -0.3844
    -68.00     -0.4013     -0.4013
    -67.00     -0.4178     -0.4178
    -66.00     -0.4341     -0.4341
    -65.00     -0.4500     -0.4500
    -64.00     -0.4657     -0.4657
    -63.00     -0.4811     -0.4811
    -62.00     -0.4963     -0.4963
    -61.00     -0.5112     -0.5112
    -60.00     -0.5259     -0.5259
    -59.00     -0.5402     -0.5402
    -58.00     -0.5543     -0.5543
    -57.00     -0.5679     -0.5679
    -56.00     -0.5810     -0.5810
    -55.00     -0.5936     -0.5936
    -54.00     -0.6059     -0.6059
    -53.00     -0.6180     -0.6180
    -52.00     -0.6298     -0.6298
    -51.00     -0.6414     -0.6414
    -50.00     -0.6529     -0.6529
    -49.00     -0.6643     -0.6643
    -48.00     -0.6754     -0.6754
    -47.00     -0.6883     -0.6883
    -46.00     -0.7010     -0.7010
    -45.00     -0.7066     -0.7066
    -44.00     -0.7050     -0.7050
    -43.00     -0.7020     -0.7020
    -42.00     -0.7000     -0.7000
    -41.00     -0.6995     -0.6995
    -40.00     -0.6992     -0.6992
    -39.00     -0.6991     -0.6991
    -38.00     -0.6999     -0.6999
    -37.00     -0.7019     -0.7019
    -36.00     -0.7044     -0.7044
    -35.00     -0.7071     -0.7071
    -34.00     -0.7112     -0.7112
    -33.00     -0.7177     -0.7177
    -32.00     -0.7442     -0.7442
    -31.00     -0.7956     -0.7956
    -30.00     -0.8538     -0.8538
    -29.00     -0.9190     -0.9190
    -28.00     -0.9787     -0.9787
    -27.00     -0.9915     -0.9915
    -26.00     -1.0021     -1.0021
    -25.00     -1.0143     -1.0143
    -24.00     -1.0250     -1.0250
    -23.00     -1.0345     -1.0345
    -22.00     -1.0439     -1.0439
    -21.00     -1.0533     -1.0533
    -20.00     -1.0614     -1.0614
    -19.00     -1.0609     -1.0609
    -18.00     -1.0584     -1.0584
    -17.00     -1.0496     -1.0496
    -16.00     -1.0408     -1.0408
    -15.00     -1.0427     -1.0427
    -14.00     -1.0413     -1.0413
    -13.00     -1.0361     -1.0361
    -12.00     -1.0277     -1.0277
    -11.00     -0.9848     -0.9848
    -10.00     -0.9363     -0.9363
     -9.00     -0.8082     -0.8082
     -8.00     -0.6813     -0.6813
     -7.00     -0.5471     -0.5471
     -6.00     -0.4122     -0.4122
     -5.00     -0.2795     -0.2795
     -4.00     -0.1473     -0.1473
     -3.00     -0.0170     -0.0170
     -2.00      0.1132      0.1132
     -1.00      0.2424      0.2424
      0.00      0.3708      0.3708
      1.00      0.4977      0.4977
      2.00      0.6240      0.6240
      3.00      0.7491      0.7491
      4.00      0.8731      0.8731
      5.00      0.9952      0.9952
      6.00      1.1154      1.1154
      7.00      1.2331      1.2331
      8.00      1.3476      1.3476
      9.00      1.4569      1.4569
     10.00      1.5621      1.5621
     11.00      1.6590      1.6590
     12.00      1.7474      1.7474
     13.00      1.8234      1.8234
     14.00      1.8780      1.8780
     15.00      1.8977      1.8977
     16.00      1.8890      1.8890
     17.00      1.8154      1.8154
     18.00      1.7374      1.7374
     19.00      1.6419      1.6419
     20.00      1.5494      1.5494
     21.00      1.4868      1.4868
     22.00      1.4285      1.4285
     23.00      1.3702      1.3702
     24.00      1.3126      1.3126
     25.00      1.2710      1.2710
     26.00      1.2358      1.2358
     27.00      1.2010      1.2010
     28.00      1.1681      1.1681
     29.00      1.1419      1.1419
     30.00      1.1158      1.1158
     31.00      1.0923      1.0923
     32.00      1.0709      1.0709
     33.00      1.0557      1.0557
     34.00      1.0462      1.0462
     35.00      1.0391      1.0391
     36.00      1.0331      1.0331
     37.00      1.0277      1.0277
     38.00      1.0229      1.0229
     39.00      1.0194      1.0194
     40.00      1.0169      1.0169
     41.00      1.0149      1.0149
     42.00      1.0132      1.0132
     43.00      1.0121      1.0121
     44.00      1.0111      1.0111
     45.00      1.0095      1.0095
     46.00      1.0003      1.0003
     47.00      0.9828      0.9828
     48.00      0.9649      0.9649
     49.00      0.9490      0.9490
     50.00      0.9328      0.9328
     51.00      0.9163      0.9163
     52.00      0.8997      0.8997
     53.00      0.8829      0.8829
     54.00      0.8656      0.8656
     55.00      0.8480      0.8480
     56.00      0.8300      0.8300
     57.00      0.8113      0.8113
     58.00      0.7919      0.7919
     59.00      0.7718      0.7718
     60.00      0.7512      0.7512
     61.00      0.7303      0.7303
     62.00      0.7090      0.7090
     63.00      0.6873      0.6873
     64.00      0.6653      0.6653
     65.00      0.6429      0.6429
     66.00      0.6201      0.6201
     67.00      0.5969      0.5969
     68.00      0.5732      0.5732
     69.00      0.5492      0.5492
     70.00      0.5246      0.5246
     71.00      0.4996      0.4996
     72.00      0.4745      0.4745
     73.00      0.4491      0.4491
     74.00      0.4235      0.4235
     75.00      0.3977      0.3977
     76.00      0.3717      0.3717
     77.00      0.3456      0.3456
     78.00      0.3193      0.3193
     79.00      0.2927      0.2927
     80.00      0.2660      0.2660
     81.00      0.2393      0.2393
     82.00      0.2125      0.2125
     83.00      0.1857      0.1857
     84.00      0.1590      0.1590
     85.00      0.1323      0.1323
     86.00      0.1057      0.1057
     87.00      0.0791      0.0791
     88.00      0.0517      0.0517
     89.00      0.0243      0.0243
     90.00      0.0000      0.0000
     91.00     -0.0199     -0.0199
     92.00     -0.0376     -0.0376
     93.00     -0.0554     -0.0554
     94.00     -0.0740     -0.0740
     95.00     -0.0926     -0.0926
     96.00     -0.1113     -0.1113
     97.00     -0.1300     -0.1300
     98.00     -0.1488     -0.1488
     99.00     -0.1675     -0.1675
    100.00     -0.1862     -0.1862
    101.00     -0.2049     -0.2049
    102.00     -0.2235     -0.2235
    103.00     -0.2419     -0.2419
    104.00     -0.2602     -0.2602
    105.00     -0.2784     -0.2784
    106.00     -0.2964     -0.2964
    107.00     -0.3144     -0.3144
    108.00     -0.3321     -0.3321
    109.00     -0.3498     -0.3498
    110.00     -0.3672     -0.3672
    111.00     -0.3844     -0.3844
    112.00     -0.4013     -0.4013
    113.00     -0.4178     -0.4178
    114.00     -0.4341     -0.4341
    115.00     -0.4500     -0.4500
    116.00     -0.4657     -0.4657
    117.00     -0.4811     -0.4811
    118.00     -0.4963     -0.4963
    119.00     -0.5112     -0.5112
    120.00     -0.5259     -0.5259
    121.00     -0.5402     -0.5402
    122.00     -0.5543     -0.5543
    123.00     -0.5679     -0.5679
    124.00     -0.5810     -0.5810
    125.00     -0.5936     -0.5936
    126.00     -0.6059     -0.6059
    127.00     -0.6180     -0.6180
    128.00     -0.6298     -0.6298
    129.00     -0.6414     -0.6414
    130.00     -0.6529     -0.6529
    131.00     -0.6643     -0.6643
    132.00     -0.6754     -0.6754
    133.00     -0.6861     -0.6861
    134.00     -0.6965     -0.6965
    135.00     -0.7066     -0.7066
    136.00     -0.7165     -0.7165
    137.00     -0.7260     -0.7260
    138.00     -0.7355     -0.7355
    139.00     -0.7449     -0.7449
    140.00     -0.7541     -0.7541
    141.00     -0.7633     -0.7633
    142.00     -0.7723     -0.7723
    143.00     -0.7813     -0.7813
    144.00     -0.7904     -0.7904
    145.00     -0.8019     -0.8019
    146.00     -0.8135     -0.8135
    147.00     -0.8188     -0.8188
    148.00     -0.8118     -0.8118
    149.00     -0.7955     -0.7955
    150.00     -0.7764     -0.7764
    151.00     -0.7539     -0.7539
    152.00     -0.7264     -0.7264
    153.00     -0.6988     -0.6988
    154.00     -0.6729     -0.6729
    155.00     -0.6470     -0.6470
    156.00     -0.6212     -0.6212
    157.00     -0.5953     -0.5953
    158.00     -0.5694     -0.5694
    159.00     -0.5435     -0.5435
    160.00     -0.5176     -0.5176
    161.00     -0.4917     -0.4917
    162.00     -0.4659     -0.4659
    163.00     -0.4400     -0.4400
    164.00     -0.4141     -0.4141
    165.00     -0.3882     -0.3882
    166.00     -0.3623     -0.3623
    167.00     -0.3365     -0.3365
    168.00     -0.3106     -0.3106
    169.00     -0.2847     -0.2847
    170.00     -0.2588     -0.2588
    171.00     -0.2329     -0.2329
    172.00     -0.2071     -0.2071
    173.00     -0.1812     -0.1812
    174.00     -0.1553     -0.1553
    175.00     -0.1294     -0.1294
    176.00     -0.1035     -0.1035
    177.00     -0.0776     -0.0776
    178.00     -0.0518     -0.0518
    179.00     -0.0259     -0.0259
    180.00      0.0000      0.0000
                0.0000      1.0000
   -180.00      0.0121      0.0121
   -179.00      0.0123      0.0123
   -178.00      0.0128      0.0128
   -177.00      0.0134      0.0134
   -176.00      0.0143      0.0143
   -175.00      0.0156      0.0156
   -174.00      0.0171      0.0171
   -173.00      0.0187      0.0187
   -172.00      0.0205      0.0205
   -171.00      0.0229      0.0229
   -170.00      0.0260      0.0260
   -169.00      0.0302      0.0302
   -168.00      0.0357      0.0357
   -167.00      0.0448      0.0448
   -166.00      0.0575      0.0575
   -165.00      0.0709      0.0709
   -164.00      0.0842      0.0842
   -163.00      0.0984      0.0984
   -162.00      0.1132      0.1132
   -161.00      0.1288      0.1288
   -160.00      0.1451      0.1451
   -159.00      0.1621      0.1621
   -158.00      0.1798      0.1798
   -157.00      0.1983      0.1983
   -156.00      0.2173      0.2173
   -155.00      0.2369      0.2369
   -154.00      0.2571      0.2571
   -153.00      0.2778      0.2778
   -152.00      0.2991      0.2991
   -151.00      0.3210      0.3210
   -150.00      0.3434      0.3434
   -149.00      0.3664      0.3664
   -148.00      0.3900      0.3900
   -147.00      0.4138      0.4138
   -146.00      0.4378      0.4378
   -145.00      0.4621      0.4621
   -144.00      0.4868      0.4868
   -143.00      0.5119      0.5119
   -142.00      0.5375      0.5375
   -141.00      0.5632      0.5632
   -140.00      0.5889      0.5889
   -139.00      0.6149      0.6149
   -138.00      0.6409      0.6409
   -137.00      0.6670      0.6670
   -136.00      0.6933      0.6933
   -135.00      0.7196      0.7196
   -134.00      0.7459      0.7459
   -133.00      0.7723      0.7723
   -132.00      0.7986      0.7986
   -131.00      0.8247      0.8247
   -130.00      0.8507      0.8507
   -129.00      0.8766      0.8766
   -128.00      0.9023      0.9023
   -127.00      0.9278      0.9278
   -126.00      0.9531      0.9531
   -125.00      0.9783      0.9783
   -124.00      1.0033      1.0033
   -123.00      1.0278      1.0278
   -122.00      1.0517      1.0517
   -121.00      1.0752      1.0752
   -120.00      1.0982      1.0982
   -119.00      1.1209      1.1209
   -118.00      1.1431      1.1431
   -117.00      1.1648      1.1648
   -116.00      1.1861      1.1861
   -115.00      1.2070      1.2070
   -114.00      1.2273      1.2273
   -113.00      1.2471      1.2471
   -112.00      1.2664      1.2664
   -111.00      1.2847      1.2847
   -110.00      1.3021      1.3021
   -109.00      1.3187      1.3187
   -108.00      1.3346      1.3346
   -107.00      1.3499      1.3499
   -106.00      1.3646      1.3646
   -105.00      1.3787      1.3787
   -104.00      1.3922      1.3922
   -103.00      1.4051      1.4051
   -102.00      1.4169      1.4169
   -101.00      1.4276      1.4276
   -100.00      1.4375      1.4375
    -99.00      1.4464      1.4464
    -98.00      1.4543      1.4543
    -97.00      1.4614      1.4614
    -96.00      1.4677      1.4677
    -95.00      1.4732      1.4732
    -94.00      1.4782      1.4782
    -93.00      1.4822      1.4822
    -92.00      1.4856      1.4856
    -91.00      1.4886      1.4886
    -90.00      1.4898      1.4898
    -89.00      1.4886      1.4886
    -88.00      1.4856      1.4856
    -87.00      1.4822      1.4822
    -86.00      1.4782      1.4782
    -85.00      1.4732      1.4732
    -84.00      1.4677      1.4677
    -83.00      1.4614      1.4614
    -82.00      1.4543      1.4543
    -81.00      1.4464      1.4464
    -80.00      1.4375      1.4375
    -79.00      1.4276      1.4276
    -78.00      1.4169      1.4169
    -77.00      1.4051      1.4051
    -76.00      1.3922      1.3922
    -75.00      1.3787      1.3787
    -74.00      1.3646      1.3646
    -73.00      1.3499      1.3499
    -72.00      1.3346      1.3346
    -71.00      1.3187      1.3187
    -70.00      1.3021      1.3021
    -69.00      1.2847      1.2847
    -68.00      1.2664      1.2664
    -67.00      1.2471      1.2471
    -66.00      1.2273      1.2273
    -65.00      1.2070      1.2070
    -64.00      1.1861      1.1861
    -63.00      1.1648      1.1648
    -62.00      1.1431      1.1431
    -61.00      1.1209      1.1209
    -60.00      1.0982      1.0982
    -59.00      1.0752      1.0752
    -58.00      1.0517      1.0517
    -57.00      1.0278      1.0278
    -56.00      1.0033      1.0033
    -55.00      0.9783      0.9783
    -54.00      0.9531      0.9531
    -53.00      0.9278      0.9278
    -52.00      0.9023      0.9023
    -51.00      0.8766      0.8766
    -50.00      0.8507      0.8507
    -49.00      0.8247      0.8247
    -48.00      0.7986      0.7986
    -47.00      0.7723      0.7723
    -46.00      0.7459      0.7459
    -45.00      0.7196      0.7196
    -44.00      0.6933      0.6933
    -43.00      0.6670      0.6670
    -42.00      0.6409      0.6409
    -41.00      0.6149      0.6149
    -40.00      0.5889      0.5889
    -39.00      0.5632      0.5632
    -38.00      0.5375      0.5375
    -37.00      0.5119      0.5119
    -36.00      0.4868      0.4868
    -35.00      0.4633      0.4633
    -34.00      0.4401      0.4401
    -33.00      0.4138      0.4138
    -32.00      0.3813      0.3813
    -31.00      0.3441      0.3441
    -30.00      0.3047      0.3047
    -29.00      0.2628      0.2628
    -28.00      0.2236      0.2236
    -27.00      0.2045      0.2045
    -26.00      0.1874      0.1874
    -25.00      0.1701      0.1701
    -24.00      0.1542      0.1542
    -23.00      0.1406      0.1406
    -22.00      0.1271      0.1271
    -21.00      0.1136      0.1136
    -20.00      0.1005      0.1005
    -19.00      0.0902      0.0902
    -18.00      0.0804      0.0804
    -17.00      0.0719      0.0719
    -16.00      0.0635      0.0635
    -15.00      0.0553      0.0553
    -14.00      0.0471      0.0471
    -13.00      0.0397      0.0397
    -12.00      0.0328      0.0328
    -11.00      0.0265      0.0265
    -10.00      0.0202      0.0202
     -9.00      0.0163      0.0163
     -8.00      0.0124      0.0124
     -7.00      0.0108      0.0108
     -6.00      0.0096      0.0096
     -5.00      0.0092      0.0092
     -4.00      0.0088      0.0088
     -3.00      0.0086      0.0086
     -2.00      0.0085      0.0085
     -1.00      0.0085      0.0085
      0.00      0.0085      0.0085
      1.00      0.0086      0.0086
      2.00      0.0088      0.0088
      3.00      0.0090      0.0090
      4.00      0.0094      0.0094
      5.00      0.0098      0.0098
      6.00      0.0103      0.0103
      7.00      0.0110      0.0110
      8.00      0.0118      0.0118
      9.00      0.0129      0.0129
     10.00      0.0141      0.0141
     11.00      0.0156      0.0156
     12.00      0.0174      0.0174
     13.00      0.0197      0.0197
     14.00      0.0232      0.0232
     15.00      0.0288      0.0288
     16.00      0.0373      0.0373
     17.00      0.0520      0.0520
     18.00      0.0673      0.0673
     19.00      0.0868      0.0868
     20.00      0.1069      0.1069
     21.00      0.1283      0.1283
     22.00      0.1499      0.1499
     23.00      0.1722      0.1722
     24.00      0.1942      0.1942
     25.00      0.2170      0.2170
     26.00      0.2396      0.2396
     27.00      0.2624      0.2624
     28.00      0.2859      0.2859
     29.00      0.3122      0.3122
     30.00      0.3378      0.3378
     31.00      0.3633      0.3633
     32.00      0.3887      0.3887
     33.00      0.4138      0.4138
     34.00      0.4382      0.4382
     35.00      0.4623      0.4623
     36.00      0.4868      0.4868
     37.00      0.5119      0.5119
     38.00      0.5375      0.5375
     39.00      0.5632      0.5632
     40.00      0.5889      0.5889
     41.00      0.6149      0.6149
     42.00      0.6409      0.6409
     43.00      0.6670      0.6670
     44.00      0.6933      0.6933
     45.00      0.7196      0.7196
     46.00      0.7459      0.7459
     47.00      0.7723      0.7723
     48.00      0.7986      0.7986
     49.00      0.8247      0.8247
     50.00      0.8507      0.8507
     51.00      0.8766      0.8766
     52.00      0.9023      0.9023
     53.00      0.9278      0.9278
     54.00      0.9531      0.9531
     55.00      0.9783      0.9783
     56.00      1.0033      1.0033
     57.00      1.0278      1.0278
     58.00      1.0517      1.0517
     59.00      1.0752      1.0752
     60.00      1.0982      1.0982
     61.00      1.1209      1.1209
     62.00      1.1431      1.1431
     63.00      1.1648      1.1648
     64.00      1.1861      1.1861
     65.00      1.2070      1.2070
     66.00      1.2273      1.2273
     67.00      1.2471      1.2471
     68.00      1.2664      1.2664
     69.00      1.2847      1.2847
     70.00      1.3021      1.3021
     71.00      1.3187      1.3187
     72.00      1.3346      1.3346
     73.00      1.3499      1.3499
     74.00      1.3646      1.3646
     75.00      1.3787      1.3787
     76.00      1.3922      1.3922
     77.00      1.4051      1.4051
     78.00      1.4169      1.4169
     79.00      1.4276      1.4276
     80.00      1.4375      1.4375
     81.00      1.4464      1.4464
     82.00      1.4543      1.4543
     83.00      1.4614      1.4614
     84.00      1.4677      1.4677
     85.00      1.4732      1.4732
     86.00      1.4782      1.4782
     87.00      1.4822      1.4822
     88.00      1.4856      1.4856
     89.00      1.4886      1.4886
     90.00      1.4898      1.4898
     91.00      1.4886      1.4886
     92.00      1.4856      1.4856
     93.00      1.4822      1.4822
     94.00      1.4782      1.4782
     95.00      1.4732      1.4732
     96.00      1.4677      1.4677
     97.00      1.4614      1.4614
     98.00      1.4543      1.4543
     99.00      1.4464      1.4464
    100.00      1.4375      1.4375
    101.00      1.4276      1.4276
    102.00      1.4169      1.4169
    103.00      1.4051      1.4051
    104.00      1.3922      1.3922
    105.00      1.3787      1.3787
    106.00      1.3646      1.3646
    107.00      1.3499      1.3499
    108.00      1.3346      1.3346
    109.00      1.3187      1.3187
    110.00      1.3021      1.3021
    111.00      1.2847      1.2847
    112.00      1.2664      1.2664
    113.00      1.2471      1.2471
    114.00      1.2273      1.2273
    115.00      1.2070      1.2070
    116.00      1.1861      1.1861
    117.00      1.1648      1.1648
    118.00      1.1431      1.1431
    119.00      1.1209      1.1209
    120.00      1.0982      1.0982
    121.00      1.0752      1.0752
    122.00      1.0517      1.0517
    123.00      1.0278      1.0278
    124.00      1.0033      1.0033
    125.00      0.9783      0.9783
    126.00      0.9531      0.9531
    127.00      0.9278      0.9278
    128.00      0.9023      0.9023
    129.00      0.8766      0.8766
    130.00      0.8507      0.8507
    131.00      0.8247      0.8247
    132.00      0.7986      0.7986
    133.00      0.7723      0.7723
    134.00      0.7459      0.7459
    135.00      0.7196      0.7196
    136.00      0.6933      0.6933
    137.00      0.6670      0.6670
    138.00      0.6409      0.6409
    139.00      0.6149      0.6149
    140.00      0.5889      0.5889
    141.00      0.5632      0.5632
    142.00      0.5375      0.5375
    143.00      0.5119      0.5119
    144.00      0.4868      0.4868
    145.00      0.4621      0.4621
    146.00      0.4378      0.4378
    147.00      0.4138      0.4138
    148.00      0.3900      0.3900
    149.00      0.3664      0.3664
    150.00      0.3434      0.3434
    151.00      0.3210      0.3210
    152.00      0.2991      0.2991
    153.00      0.2778      0.2778
    154.00      0.2571      0.2571
    155.00      0.2369      0.2369
    156.00      0.2173      0.2173
    157.00      0.1983      0.1983
    158.00      0.1798      0.1798
    159.00      0.1621      0.1621
    160.00      0.1451      0.1451
    161.00      0.1288      0.1288
    162.00      0.1132      0.1132
    163.00      0.0984      0.0984
    164.00      0.0842      0.0842
    165.00      0.0709      0.0709
    166.00      0.0575      0.0575
    167.00      0.0447      0.0447
    168.00      0.0357      0.0357
    169.00      0.0302      0.0302
    170.00      0.0260      0.0260
    171.00      0.0229      0.0229
    172.00      0.0205      0.0205
    173.00      0.0187      0.0187
    174.00      0.0171      0.0171
    175.00      0.0156      0.0156
    176.00      0.0143      0.0143
    177.00      0.0134      0.0134
    178.00      0.0128      0.0128
    179.00      0.0123      0.0123
    180.00      0.0121      0.0121
                0.0000      1.0000
   -180.00      0.0000      0.0000
   -179.00      0.0400      0.0400
   -178.00      0.0800      0.0800
   -177.00      0.1200      0.1200
   -176.00      0.1600      0.1600
   -175.00      0.2000      0.2000
   -174.00      0.2400      0.2400
   -173.00      0.2849      0.2849
   -172.00      0.3297      0.3297
   -171.00      0.3600      0.3600
   -170.00      0.3771      0.3771
   -169.00      0.3900      0.3900
   -168.00      0.3951      0.3951
   -167.00      0.3937      0.3937
   -166.00      0.3907      0.3907
   -165.00      0.3877      0.3877
   -164.00      0.3846      0.3846
   -163.00      0.3816      0.3816
   -162.00      0.3802      0.3802
   -161.00      0.3806      0.3806
   -160.00      0.3815      0.3815
   -159.00      0.3829      0.3829
   -158.00      0.3878      0.3878
   -157.00      0.3968      0.3968
   -156.00      0.4057      0.4057
   -155.00      0.4134      0.4134
   -154.00      0.4211      0.4211
   -153.00      0.4285      0.4285
   -152.00      0.4371      0.4371
   -151.00      0.4454      0.4454
   -150.00      0.4492      0.4492
   -149.00      0.4493      0.4493
   -148.00      0.4493      0.4493
   -147.00      0.4493      0.4493
   -146.00      0.4489      0.4489
   -145.00      0.4481      0.4481
   -144.00      0.4473      0.4473
   -143.00      0.4466      0.4466
   -142.00      0.4458      0.4458
   -141.00      0.4453      0.4453
   -140.00      0.4450      0.4450
   -139.00      0.4447      0.4447
   -138.00      0.4446      0.4446
   -137.00      0.4449      0.4449
   -136.00      0.4455      0.4455
   -135.00      0.4460      0.4460
   -134.00      0.4465      0.4465
   -133.00      0.4469      0.4469
   -132.00      0.4475      0.4475
   -131.00      0.4483      0.4483
   -130.00      0.4493      0.4493
   -129.00      0.4505      0.4505
   -128.00      0.4517      0.4517
   -127.00      0.4530      0.4530
   -126.00      0.4543      0.4543
   -125.00      0.4558      0.4558
   -124.00      0.4573      0.4573
   -123.00      0.4588      0.4588
   -122.00      0.4602      0.4602
   -121.00      0.4617      0.4617
   -120.00      0.4630      0.4630
   -119.00      0.4643      0.4643
   -118.00      0.4655      0.4655
   -117.00      0.4667      0.4667
   -116.00      0.4679      0.4679
   -115.00      0.4691      0.4691
   -114.00      0.4702      0.4702
   -113.00      0.4715      0.4715
   -112.00      0.4729      0.4729
   -111.00      0.4737      0.4737
   -110.00      0.4741      0.4741
   -109.00      0.4743      0.4743
   -108.00      0.4745      0.4745
   -107.00      0.4745      0.4745
   -106.00      0.4746      0.4746
   -105.00      0.4746      0.4746
   -104.00      0.4746      0.4746
   -103.00      0.4744      0.4744
   -102.00      0.4742      0.4742
   -101.00      0.4738      0.4738
   -100.00      0.4730      0.4730
    -99.00      0.4721      0.4721
    -98.00      0.4709      0.4709
    -97.00      0.4695      0.4695
    -96.00      0.4679      0.4679
    -95.00      0.4663      0.4663
    -94.00      0.4646      0.4646
    -93.00      0.4630      0.4630
    -92.00      0.4615      0.4615
    -91.00      0.4600      0.4600
    -90.00      0.4581      0.4581
    -89.00      0.4550      0.4550
    -88.00      0.4510      0.4510
    -87.00      0.4470      0.4470
    -86.00      0.4433      0.4433
    -85.00      0.4396      0.4396
    -84.00      0.4358      0.4358
    -83.00      0.4321      0.4321
    -82.00      0.4282      0.4282
    -81.00      0.4242      0.4242
    -80.00      0.4200      0.4200
    -79.00      0.4156      0.4156
    -78.00      0.4110      0.4110
    -77.00      0.4063      0.4063
    -76.00      0.4014      0.4014
    -75.00      0.3965      0.3965