IEA-15-240-RWT_AeroDyn15_Polar_36; 2 361 2 361 2 361
                0.0000      1.0000
   -180.00      0.0000      0.0000
   -179.00      0.0239      0.0239
   -178.00      0.0477      0.0477
   -177.00      0.0716      0.0716
   -176.00      0.0955      0.0955
   -175.00      0.1193      0.1193
   -174.00      0.1432      0.1432
   -173.00      0.1671      0.1671
   -172.00      0.1909      0.1909
   -171.00      0.2148      0.2148
   -170.00      0.2387      0.2387
   -169.00      0.2625      0.2625
   -168.00      0.2864      0.2864
   -167.00      0.3103      0.3103
   -166.00      0.3341      0.3341
   -165.00      0.3580      0.3580
   -164.00      0.3818      0.3818
   -163.00      0.4057      0.4057
   -162.00      0.4296      0.4296
   -161.00      0.4534      0.4534
   -160.00      0.4773      0.4773
   -159.00      0.5012      0.5012
   -158.00      0.5250      0.5250
   -157.00      0.5489      0.5489
   -156.00      0.5728      0.5728
   -155.00      0.5966      0.5966
   -154.00      0.6205      0.6205
   -153.00      0.6444      0.6444
   -152.00      0.6696      0.6696
   -151.00      0.6949      0.6949
   -150.00      0.7160      0.7160
   -149.00      0.7345      0.7345
   -148.00      0.7507      0.7507
   -147.00      0.7576      0.7576
   -146.00      0.7542      0.7542
   -145.00      0.7467      0.7467
   -144.00      0.7392      0.7392
   -143.00      0.7330      0.7330
   -142.00      0.7267      0.7267
   -141.00      0.7203      0.7203
   -140.00      0.7137      0.7137
   -139.00      0.7069      0.7069
   -138.00      0.7000      0.7000
   -137.00      0.6928      0.6928
   -136.00      0.6855      0.6855
   -135.00      0.6778      0.6778
   -134.00      0.6698      0.6698
   -133.00      0.6614      0.6614
   -132.00      0.6526      0.6526
   -131.00      0.6434      0.6434
   -130.00      0.6337      0.6337
   -129.00      0.6237      0.6237
   -128.00      0.6134      0.6134
   -127.00      0.6028      0.6028
   -126.00      0.5918      0.5918
   -125.00      0.5806      0.5806
   -124.00      0.5690      0.5690
   -123.00      0.5570      0.5570
   -122.00      0.5443      0.5443
   -121.00      0.5311      0.5311
   -120.00      0.5175      0.5175
   -119.00      0.5037      0.5037
   -118.00      0.4895      0.4895
   -117.00      0.4750      0.4750
   -116.00      0.4603      0.4603
   -115.00      0.4452      0.4452
   -114.00      0.4299      0.4299
   -113.00      0.4142      0.4142
   -112.00      0.3982      0.3982
   -111.00      0.3818      0.3818
   -110.00      0.3650      0.3650
   -109.00      0.3479      0.3479
   -108.00      0.3306      0.3306
   -107.00      0.3131      0.3131
   -106.00      0.2955      0.2955
   -105.00      0.2777      0.2777
   -104.00      0.2597      0.2597
   -103.00      0.2416      0.2416
   -102.00      0.2234      0.2234
   -101.00      0.2049      0.2049
   -100.00      0.1863      0.1863
    -99.00      0.1677      0.1677
    -98.00      0.1490      0.1490
    -97.00      0.1303      0.1303
    -96.00      0.1116      0.1116
    -95.00      0.0929      0.0929
    -94.00      0.0743      0.0743
    -93.00      0.0556      0.0556
    -92.00      0.0371      0.0371
    -91.00      0.0185      0.0185
    -90.00     -0.0000     -0.0000
    -89.00     -0.0185     -0.0185
    -88.00     -0.0371     -0.0371
    -87.00     -0.0556     -0.0556
    -86.00     -0.0743     -0.0743
    -85.00     -0.0929     -0.0929
    -84.00     -0.1116     -0.1116
    -83.00     -0.1303     -0.1303
    -82.00     -0.1490     -0.1490
    -81.00     -0.1677     -0.1677
    -80.00     -0.1863     -0.1863
    -79.00     -0.2049     -0.2049
    -78.00     -0.2234     -0.2234
    -77.00     -0.2416     -0.2416
    -76.00     -0.2597     -0.2597
    -75.00     -0.2777     -0.2777
    -74.00     -0.2955     -0.2955
    -73.00     -0.3131     -0.3131
    -72.00     -0.3306     -0.3306
    -71.00     -0.3479     -0.3479
    -70.00     -0.3650     -0.3650
    -69.00     -0.3818     -0.3818
    -68.00     -0.3982     -0.3982
    -67.00     -0.4142     -0.4142
    -66.00     -0.4299     -0.4299
    -65.00     -0.4452     -0.4452
    -64.00     -0.4603     -0.4603
    -63.00     -0.4750     -0.4750
    -62.00     -0.4895     -0.4895
    -61.00     -0.5037     -0.5037
    -60.00     -0.5175     -0.5175
    -59.00     -0.5311     -0.5311
    -58.00     -0.5443     -0.5443
    -57.00     -0.5570     -0.5570
    -56.00     -0.5690     -0.5690
    -55.00     -0.5806     -0.5806
    -54.00     -0.5918     -0.5918
    -53.00     -0.6028     -0.6028
    -52.00     -0.6134     -0.6134
    -51.00     -0.6237     -0.6237
    -50.00     -0.6337     -0.6337
    -49.00     -0.6434     -0.6434
    -48.00     -0.6526     -0.6526
    -47.00     -0.6632     -0.6632
    -46.00     -0.6733     -0.6733
    -45.00     -0.6778     -0.6778
    -44.00     -0.6751     -0.6751
    -43.00     -0.6689     -0.6689
    -42.00     -0.6625     -0.6625
    -41.00     -0.6570     -0.6570
    -40.00     -0.6512     -0.6512
    -39.00     -0.6453     -0.6453
    -38.00     -0.6390     -0.6390
    -37.00     -0.6326     -0.6326
    -36.00     -0.6267     -0.6267
    -35.00     -0.6206     -0.6206
    -34.00     -0.6150     -0.6150
    -33.00     -0.6125     -0.6125
    -32.00     -0.6229     -0.6229
    -31.00     -0.6473     -0.6473
    -30.00     -0.6756     -0.6756
    -29.00     -0.7088     -0.7088
    -28.00     -0.7465     -0.7465
    -27.00     -0.8182     -0.8182
    -26.00     -0.8945     -0.8945
    -25.00     -0.9728     -0.9728
    -24.00     -1.0568     -1.0568
    -23.00     -1.0812     -1.0812
    -22.00     -1.1044     -1.1044
    -21.00     -1.1276     -1.1276
    -20.00     -1.1487     -1.1487
    -19.00     -1.1545     -1.1545
    -18.00     -1.1578     -1.1578
    -17.00     -1.1554     -1.1554
    -16.00     -1.1525     -1.1525
    -15.00     -1.1468     -1.1468
    -14.00     -1.1388     -1.1388
    -13.00     -1.1112     -1.1112
    -12.00     -1.0749     -1.0749
    -11.00     -0.9877     -0.9877
    -10.00     -0.8943     -0.8943
     -9.00     -0.7659     -0.7659
     -8.00     -0.6373     -0.6373
     -7.00     -0.5087     -0.5087
     -6.00     -0.3802     -0.3802
     -5.00     -0.2522     -0.2522
     -4.00     -0.1244     -0.1244
     -3.00      0.0010      0.0010
     -2.00      0.1263      0.1263
     -1.00      0.2506      0.2506
      0.00      0.3743      0.3743
      1.00      0.4976      0.4976
      2.00      0.6200      0.6200
      3.00      0.7414      0.7414
      4.00      0.8619      0.8619
      5.00      0.9803      0.9803
      6.00      1.0956      1.0956
      7.00      1.2079      1.2079
      8.00      1.3151      1.3151
      9.00      1.4191      1.4191
     10.00      1.5195      1.5195
     11.00      1.6130      1.6130
     12.00      1.6993      1.6993
     13.00      1.7740      1.7740
     14.00      1.8221      1.8221
     15.00      1.8328      1.8328
     16.00      1.7880      1.7880
     17.00      1.7021      1.7021
     18.00      1.6159      1.6159
     19.00      1.5442      1.5442
     20.00      1.4761      1.4761
     21.00      1.4251      1.4251
     22.00      1.3766      1.3766
     23.00      1.3271      1.3271
     24.00      1.2762      1.2762
     25.00      1.2280      1.2280
     26.00      1.1878      1.1878
     27.00      1.1491      1.1491
     28.00      1.1110      1.1110
     29.00      1.0601      1.0601
     30.00      1.0111      1.0111
     31.00      0.9745      0.9745
     32.00      0.9446      0.9446
     33.00      0.9322      0.9322
     34.00      0.9343      0.9343
     35.00      0.9389      0.9389
     36.00      0.9435      0.9435
     37.00      0.9471      0.9471
     38.00      0.9507      0.9507
     39.00      0.9540      0.9540
     40.00      0.9571      0.9571
     41.00      0.9600      0.9600
     42.00      0.9625      0.9625
     43.00      0.9650      0.9650
     44.00      0.9673      0.9673
     45.00      0.9683      0.9683
     46.00      0.9619      0.9619
     47.00      0.9474      0.9474
     48.00      0.9323      0.9323
     49.00      0.9191      0.9191
     50.00      0.9053      0.9053
     51.00      0.8911      0.8911
     52.00      0.8764      0.8764
     53.00      0.8611      0.8611
     54.00      0.8455      0.8455
     55.00      0.8294      0.8294
     56.00      0.8129      0.8129
     57.00      0.7957      0.7957
     58.00      0.7775      0.7775
     59.00      0.7586      0.7586
     60.00      0.7393      0.7393
     61.00      0.7195      0.7195
     62.00      0.6993      0.6993
     63.00      0.6786      0.6786
     64.00      0.6575      0.6575
     65.00      0.6360      0.6360
     66.00      0.6141      0.6141
     67.00      0.5917      0.5917
     68.00      0.5688      0.5688
     69.00      0.5454      0.5454
     70.00      0.5215      0.5215
     71.00      0.4970      0.4970
     72.00      0.4723      0.4723
     73.00      0.4474      0.4474
     74.00      0.4221      0.4221
     75.00      0.3967      0.3967
     76.00      0.3710      0.3710
     77.00      0.3452      0.3452
     78.00      0.3191      0.3191
     79.00      0.2927      0.2927
     80.00      0.2662      0.2662
     81.00      0.2396      0.2396
     82.00      0.2129      0.2129
     83.00      0.1862      0.1862
     84.00      0.1595      0.1595
     85.00      0.1328      0.1328
     86.00      0.1061      0.1061
     87.00      0.0795      0.0795
     88.00      0.0519      0.0519
     89.00      0.0244      0.0244
     90.00      0.0000      0.0000
     91.00     -0.0200     -0.0200
     92.00     -0.0378     -0.0378
     93.00     -0.0556     -0.0556
     94.00     -0.0743     -0.0743
     95.00     -0.0929     -0.0929
     96.00     -0.1116     -0.1116
     97.00     -0.1303     -0.1303
     98.00     -0.1490     -0.1490
     99.00     -0.1677     -0.1677
    100.00     -0.1863     -0.1863
    101.00     -0.2049     -0.2049
    102.00     -0.2234     -0.2234
    103.00     -0.2416     -0.2416
    104.00     -0.2597     -0.2597
    105.00     -0.2777     -0.2777
    106.00     -0.2955     -0.2955
    107.00     -0.3131     -0.3131
    108.00     -0.3306     -0.3306
    109.00     -0.3479     -0.3479
    110.00     -0.3650     -0.3650
    111.00     -0.3818     -0.3818
    112.00     -0.3982     -0.3982
    113.00     -0.4142     -0.4142
    114.00     -0.4299     -0.4299
    115.00     -0.4452     -0.4452
    116.00     -0.4603     -0.4603
    117.00     -0.4750     -0.4750
    118.00     -0.4895     -0.4895
    119.00     -0.5037     -0.5037
    120.00     -0.5175     -0.5175
    121.00     -0.5311     -0.5311
    122.00     -0.5443     -0.5443
    123.00     -0.5570     -0.5570
    124.00     -0.5690     -0.5690
    125.00     -0.5806     -0.5806
    126.00     -0.5918     -0.5918
    127.00     -0.6028     -0.6028
    128.00     -0.6134     -0.6134
    129.00     -0.6237     -0.6237
    130.00     -0.6337     -0.6337
    131.00     -0.6434     -0.6434
    132.00     -0.6526     -0.6526
    133.00     -0.6614     -0.6614
    134.00     -0.6698     -0.6698
    135.00     -0.6778     -0.6778
    136.00     -0.6855     -0.6855
    137.00     -0.6928     -0.6928
    138.00     -0.7000     -0.7000
    139.00     -0.7069     -0.7069
    140.00     -0.7137     -0.7137
    141.00     -0.7203     -0.7203
    142.00     -0.7267     -0.7267
    143.00     -0.7330     -0.7330
    144.00     -0.7392     -0.7392
    145.00     -0.7467     -0.7467
    146.00     -0.7542     -0.7542
    147.00     -0.7576     -0.7576
    148.00     -0.7507     -0.7507
    149.00     -0.7345     -0.7345
    150.00     -0.7160     -0.7160
    151.00     -0.6949     -0.6949
    152.00     -0.6696     -0.6696
    153.00     -0.6444     -0.6444
    154.00     -0.6205     -0.6205
    155.00     -0.5966     -0.5966
    156.00     -0.5728     -0.5728
    157.00     -0.5489     -0.5489
    158.00     -0.5250     -0.5250
    159.00     -0.5012     -0.5012
    160.00     -0.4773     -0.4773
    161.00     -0.4534     -0.4534
    162.00     -0.4296     -0.4296
    163.00     -0.4057     -0.4057
    164.00     -0.3818     -0.3818
    165.00     -0.3580     -0.3580
    166.00     -0.3341     -0.3341
    167.00     -0.3102     -0.3102
    168.00     -0.2864     -0.2864
    169.00     -0.2625     -0.2625
    170.00     -0.2387     -0.2387
    171.00     -0.2148     -0.2148
    172.00     -0.1909     -0.1909
    173.00     -0.1671     -0.1671
    174.00     -0.1432     -0.1432
    175.00     -0.1193     -0.1193
    176.00     -0.0955     -0.0955
    177.00     -0.0716     -0.0716
    178.00     -0.0477     -0.0477
    179.00     -0.0239     -0.0239
    180.00      0.0000      0.0000
                0.0000      1.0000
   -180.00      0.0220      0.0220
   -179.00      0.0223      0.0223
   -178.00      0.0228      0.0228
   -177.00      0.0234      0.0234
   -176.00      0.0243      0.0243
   -175.00      0.0256      0.0256
   -174.00      0.0270      0.0270
   -173.00      0.0285      0.0285
   -172.00      0.0303      0.0303
   -171.00      0.0329      0.0329
   -170.00      0.0384      0.0384
   -169.00      0.0472      0.0472
   -168.00      0.0571      0.0571
   -167.00      0.0678      0.0678
   -166.00      0.0800      0.0800
   -165.00      0.0929      0.0929
   -164.00      0.1063      0.1063
   -163.00      0.1206      0.1206
   -162.00      0.1356      0.1356
   -161.00      0.1515      0.1515
   -160.00      0.1682      0.1682
   -159.00      0.1855      0.1855
   -158.00      0.2035      0.2035
   -157.00      0.2223      0.2223
   -156.00      0.2416      0.2416
   -155.00      0.2614      0.2614
   -154.00      0.2819      0.2819
   -153.00      0.3029      0.3029
   -152.00      0.3244      0.3244
   -151.00      0.3465      0.3465
   -150.00      0.3691      0.3691
   -149.00      0.3923      0.3923
   -148.00      0.4160      0.4160
   -147.00      0.4400      0.4400
   -146.00      0.4641      0.4641
   -145.00      0.4886      0.4886
   -144.00      0.5133      0.5133
   -143.00      0.5386      0.5386
   -142.00      0.5642      0.5642
   -141.00      0.5900      0.5900
   -140.00      0.6159      0.6159
   -139.00      0.6418      0.6418
   -138.00      0.6679      0.6679
   -137.00      0.6941      0.6941
   -136.00      0.7204      0.7204
   -135.00      0.7467      0.7467
   -134.00      0.7730      0.7730
   -133.00      0.7994      0.7994
   -132.00      0.8256      0.8256
   -131.00      0.8517      0.8517
   -130.00      0.8776      0.8776
   -129.00      0.9033      0.9033
   -128.00      0.9288      0.9288
   -127.00      0.9541      0.9541
   -126.00      0.9791      0.9791
   -125.00      1.0041      1.0041
   -124.00      1.0288      1.0288
   -123.00      1.0530      1.0530
   -122.00      1.0766      1.0766
   -121.00      1.0998      1.0998
   -120.00      1.1225      1.1225
   -119.00      1.1448      1.1448
   -118.00      1.1667      1.1667
   -117.00      1.1881      1.1881
   -116.00      1.2091      1.2091
   -115.00      1.2296      1.2296
   -114.00      1.2495      1.2495
   -113.00      1.2690      1.2690
   -112.00      1.2878      1.2878
   -111.00      1.3057      1.3057
   -110.00      1.3227      1.3227
   -109.00      1.3388      1.3388
   -108.00      1.3543      1.3543
   -107.00      1.3692      1.3692
   -106.00      1.3834      1.3834
   -105.00      1.3970      1.3970
   -104.00      1.4100      1.4100
   -103.00      1.4225      1.4225
   -102.00      1.4338      1.4338
   -101.00      1.4440      1.4440
   -100.00      1.4534      1.4534
    -99.00      1.4617      1.4617
    -98.00      1.4691      1.4691
    -97.00      1.4757      1.4757
    -96.00      1.4814      1.4814
    -95.00      1.4864      1.4864
    -94.00      1.4908      1.4908
    -93.00      1.4942      1.4942
    -92.00      1.4969      1.4969
    -91.00      1.4991      1.4991
    -90.00      1.5000      1.5000
    -89.00      1.4991      1.4991
    -88.00      1.4969      1.4969
    -87.00      1.4942      1.4942
    -86.00      1.4908      1.4908
    -85.00      1.4864      1.4864
    -84.00      1.4814      1.4814
    -83.00      1.4757      1.4757
    -82.00      1.4691      1.4691
    -81.00      1.4617      1.4617
    -80.00      1.4534      1.4534
    -79.00      1.4440      1.4440
    -78.00      1.4338      1.4338
    -77.00      1.4225      1.4225
    -76.00      1.4100      1.4100
    -75.00      1.3970      1.3970
    -74.00      1.3834      1.3834
    -73.00      1.3692      1.3692
    -72.00      1.3543      1.3543
    -71.00      1.3388      1.3388
    -70.00      1.3227      1.3227
    -69.00      1.3057      1.3057
    -68.00      1.2878      1.2878
    -67.00      1.2690      1.2690
    -66.00      1.2495      1.2495
    -65.00      1.2296      1.2296
    -64.00      1.2091      1.2091
    -63.00      1.1881      1.1881
    -62.00      1.1667      1.1667
    -61.00      1.1448      1.1448
    -60.00      1.1225      1.1225
    -59.00      1.0998      1.0998
    -58.00      1.0766      1.0766
    -57.00      1.0530      1.0530
    -56.00      1.0288      1.0288
    -55.00      1.0041      1.0041
    -54.00      0.9791      0.9791
    -53.00      0.9541      0.9541
    -52.00      0.9288      0.9288
    -51.00      0.9033      0.9033
    -50.00      0.8776      0.8776
    -49.00      0.8517      0.8517
    -48.00      0.8256      0.8256
    -47.00      0.7994      0.7994
    -46.00      0.7730      0.7730
    -45.00      0.7467      0.7467
    -44.00      0.7204      0.7204
    -43.00      0.6941      0.6941
    -42.00      0.6679      0.6679
    -41.00      0.6418      0.6418
    -40.00      0.6159      0.6159
    -39.00      0.5900      0.5900
    -38.00      0.5642      0.5642
    -37.00      0.5386      0.5386
    -36.00      0.5133      0.5133
    -35.00      0.4893      0.4893
    -34.00      0.4657      0.4657
    -33.00      0.4400      0.4400
    -32.00      0.4107      0.4107
    -31.00      0.3787      0.3787
    -30.00      0.3454      0.3454
    -29.00      0.3103      0.3103
    -28.00      0.2753      0.2753
    -27.00      0.2416      0.2416
    -26.00      0.2082      0.2082
    -25.00      0.1748      0.1748
    -24.00      0.1418      0.1418
    -23.00      0.1273      0.1273
    -22.00      0.1133      0.1133
    -21.00      0.0993      0.0993
    -20.00      0.0858      0.0858
    -19.00      0.0760      0.0760
    -18.00      0.0669      0.0669
    -17.00      0.0587      0.0587
    -16.00      0.0507      0.0507
    -15.00      0.0436      0.0436
    -14.00      0.0365      0.0365
    -13.00      0.0301      0.0301
    -12.00      0.0238      0.0238
    -11.00      0.0194      0.0194
    -10.00      0.0151      0.0151
     -9.00      0.0129      0.0129
     -8.00      0.0109      0.0109
     -7.00      0.0098      0.0098
     -6.00      0.0088      0.0088
     -5.00      0.0080      0.0080
     -4.00      0.0072      0.0072
     -3.00      0.0070      0.0070
     -2.00      0.0068      0.0068
     -1.00      0.0068      0.0068
      0.00      0.0069      0.0069
      1.00      0.0070      0.0070
      2.00      0.0072      0.0072
      3.00      0.0074      0.0074
      4.00      0.0077      0.0077
      5.00      0.0082      0.0082
      6.00      0.0089      0.0089
      7.00      0.0098      0.0098
      8.00      0.0110      0.0110
      9.00      0.0123      0.0123
     10.00      0.0137      0.0137
     11.00      0.0153      0.0153
     12.00      0.0172      0.0172
     13.00      0.0197      0.0197
     14.00      0.0238      0.0238
     15.00      0.0305      0.0305
     16.00      0.0416      0.0416
     17.00      0.0579      0.0579
     18.00      0.0746      0.0746
     19.00      0.0922      0.0922
     20.00      0.1100      0.1100
     21.00      0.1288      0.1288
     22.00      0.1480      0.1480
     23.00      0.1662      0.1662
     24.00      0.1850      0.1850
     25.00      0.2081      0.2081
     26.00      0.2315      0.2315
     27.00      0.2549      0.2549
     28.00      0.2792      0.2792
     29.00      0.3123      0.3123
     30.00      0.3468      0.3468
     31.00      0.3797      0.3797
     32.00      0.4111      0.4111
     33.00      0.4400      0.4400
     34.00      0.4656      0.4656
     35.00      0.4893      0.4893
     36.00      0.5133      0.5133
     37.00      0.5386      0.5386
     38.00      0.5642      0.5642
     39.00      0.5900      0.5900
     40.00      0.6159      0.6159
     41.00      0.6418      0.6418
     42.00      0.6679      0.6679
     43.00      0.6941      0.6941
     44.00      0.7204      0.7204
     45.00      0.7467      0.7467
     46.00      0.7730      0.7730
     47.00      0.7994      0.7994
     48.00      0.8256      0.8256
     49.00      0.8517      0.8517
     50.00      0.8776      0.8776
     51.00      0.9033      0.9033
     52.00      0.9288      0.9288
     53.00      0.9541      0.9541
     54.00      0.9791      0.9791
     55.00      1.0041      1.0041
     56.00      1.0288      1.0288
     57.00      1.0530      1.0530
     58.00      1.0766      1.0766
     59.00      1.0998      1.0998
     60.00      1.1225      1.1225
     61.00      1.1448      1.1448
     62.00      1.1667      1.1667
     63.00      1.1881      1.1881
     64.00      1.2091      1.2091
     65.00      1.2296      1.2296
     66.00      1.2495      1.2495
     67.00      1.2690      1.2690
     68.00      1.2878      1.2878
     69.00      1.3057      1.3057
     70.00      1.3227      1.3227
     71.00      1.3388      1.3388
     72.00      1.3543      1.3543
     73.00      1.3692      1.3692
     74.00      1.3834      1.3834
     75.00      1.3970      1.3970
     76.00      1.4100      1.4100
     77.00      1.4225      1.4225
     78.00      1.4338      1.4338
     79.00      1.4440      1.4440
     80.00      1.4534      1.4534
     81.00      1.4617      1.4617
     82.00      1.4691      1.4691
     83.00      1.4757      1.4757
     84.00      1.4814      1.4814
     85.00      1.4864      1.4864
     86.00      1.4908      1.4908
     87.00      1.4942      1.4942
     88.00      1.4969      1.4969
     89.00      1.4991      1.4991
     90.00      1.5000      1.5000
     91.00      1.4991      1.4991
     92.00      1.4969      1.4969
     93.00      1.4942      1.4942
     94.00      1.4908      1.4908
     95.00      1.4864      1.4864
     96.00      1.4814      1.4814
     97.00      1.4757      1.4757
     98.00      1.4691      1.4691
     99.00      1.4617      1.4617
    100.00      1.4534      1.4534
    101.00      1.4440      1.4440
    102.00      1.4338      1.4338
    103.00      1.4225      1.4225
    104.00      1.4100      1.4100
    105.00      1.3970      1.3970
    106.00      1.3834      1.3834
    107.00      1.3692      1.3692
    108.00      1.3543      1.3543
    109.00      1.3388      1.3388
    110.00      1.3227      1.3227
    111.00      1.3057      1.3057
    112.00      1.2878      1.2878
    113.00      1.2690      1.2690
    114.00      1.2495      1.2495
    115.00      1.2296      1.2296
    116.00      1.2091      1.2091
    117.00      1.1881      1.1881
    118.00      1.1667      1.1667
    119.00      1.1448      1.1448
    120.00      1.1225      1.1225
    121.00      1.0998      1.0998
    122.00      1.0766      1.0766
    123.00      1.0530      1.0530
    124.00      1.0288      1.0288
    125.00      1.0041      1.0041
    126.00      0.9791      0.9791
    127.00      0.9541      0.9541
    128.00      0.9288      0.9288
    129.00      0.9033      0.9033
    130.00      0.8776      0.8776
    131.00      0.8517      0.8517
    132.00      0.8256      0.8256
    133.00      0.7994      0.7994
    134.00      0.7730      0.7730
    135.00      0.7467      0.7467
    136.00      0.7204      0.7204
    137.00      0.6941      0.6941
    138.00      0.6679      0.6679
    139.00      0.6418      0.6418
    140.00      0.6159      0.6159
    141.00      0.5900      0.5900
    142.00      0.5642      0.5642
    143.00      0.5386      0.5386
    144.00      0.5133      0.5133
    145.00      0.4886      0.4886
    146.00      0.4641      0.4641
    147.00      0.4400      0.4400
    148.00      0.4160      0.4160
    149.00      0.3923      0.3923
    150.00      0.3691      0.3691
    151.00      0.3465      0.3465
    152.00      0.3244      0.3244
    153.00      0.3029      0.3029
    154.00      0.2819      0.2819
    155.00      0.2614      0.2614
    156.00      0.2416      0.2416
    157.00      0.2223      0.2223
    158.00      0.2035      0.2035
    159.00      0.1855      0.1855
    160.00      0.1682      0.1682
    161.00      0.1515      0.1515
    162.00      0.1356      0.1356
    163.00      0.1206      0.1206
    164.00      0.1063      0.1063
    165.00      0.0929      0.0929
    166.00      0.0800      0.0800
    167.00      0.0678      0.0678
    168.00      0.0571      0.0571
    169.00      0.0472      0.0472
    170.00      0.0384      0.0384
    171.00      0.0329      0.0329
    172.00      0.0303      0.0303
    173.00      0.0285      0.0285
    174.00      0.0270      0.0270
    175.00      0.0256      0.0256
    176.00      0.0243      0.0243
    177.00      0.0234      0.0234
    178.00      0.0228      0.0228
    179.00      0.0223      0.0223
    180.00      0.0220      0.0220
                0.0000      1.0000
   -180.00      0.0000      0.0000
   -179.00      0.0400      0.0400
   -178.00      0.0800      0.0800
   -177.00      0.1200      0.1200
   -176.00      0.1600      0.1600
   -175.00      0.2000      0.2000
   -174.00      0.2400      0.2400
   -173.00      0.2854      0.2854
   -172.00      0.3308      0.3308
   -171.00      0.3600      0.3600
   -170.00      0.3746      0.3746
   -169.00      0.3853      0.3853
   -168.00      0.3894      0.3894
   -167.00      0.3864      0.3864
   -166.00      0.3800      0.3800
   -165.00      0.3735      0.3735
   -164.00      0.3674      0.3674
   -163.00      0.3613      0.3613
   -162.00      0.3576      0.3576
   -161.00      0.3560      0.3560
   -160.00      0.3549      0.3549
   -159.00      0.3544      0.3544
   -158.00      0.3586      0.3586
   -157.00      0.3678      0.3678
   -156.00      0.3769      0.3769
   -155.00      0.3845      0.3845
   -154.00      0.3920      0.3920
   -153.00      0.3994      0.3994
   -152.00      0.4075      0.4075
   -151.00      0.4154      0.4154
   -150.00      0.4202      0.4202
   -149.00      0.4219      0.4219
   -148.00      0.4231      0.4231
   -147.00      0.4240      0.4240
   -146.00      0.4248      0.4248
   -145.00      0.4255      0.4255
   -144.00      0.4262      0.4262
   -143.00      0.4269      0.4269
   -142.00      0.4276      0.4276
   -141.00      0.4285      0.4285
   -140.00      0.4294      0.4294
   -139.00      0.4305      0.4305
   -138.00      0.4316      0.4316
   -137.00      0.4328      0.4328
   -136.00      0.4340      0.4340
   -135.00      0.4352      0.4352
   -134.00      0.4364      0.4364
   -133.00      0.4376      0.4376
   -132.00      0.4389      0.4389
   -131.00      0.4403      0.4403
   -130.00      0.4419      0.4419
   -129.00      0.4436      0.4436
   -128.00      0.4453      0.4453
   -127.00      0.4470      0.4470
   -126.00      0.4488      0.4488
   -125.00      0.4506      0.4506
   -124.00      0.4525      0.4525
   -123.00      0.4544      0.4544
   -122.00      0.4562      0.4562
   -121.00      0.4579      0.4579
   -120.00      0.4596      0.4596
   -119.00      0.4611      0.4611
   -118.00      0.4626      0.4626
   -117.00      0.4640      0.4640
   -116.00      0.4653      0.4653
   -115.00      0.4666      0.4666
   -114.00      0.4678      0.4678
   -113.00      0.4693      0.4693
   -112.00      0.4708      0.4708
   -111.00      0.4717      0.4717
   -110.00      0.4721      0.4721
   -109.00      0.4725      0.4725
   -108.00      0.4727      0.4727
   -107.00      0.4728      0.4728
   -106.00      0.4729      0.4729
   -105.00      0.4730      0.4730
   -104.00      0.4729      0.4729
   -103.00      0.4728      0.4728
   -102.00      0.4727      0.4727
   -101.00      0.4723      0.4723
   -100.00      0.4715      0.4715
    -99.00      0.4707      0.4707
    -98.00      0.4695      0.4695
    -97.00      0.4680      0.4680
    -96.00      0.4664      0.4664
    -95.00      0.4649      0.4649
    -94.00      0.4632      0.4632
    -93.00      0.4616      0.4616
    -92.00      0.4601      0.4601
    -91.00      0.4586      0.4586
    -90.00      0.4567      0.4567
    -89.00      0.4537      0.4537
    -88.00      0.4498      0.4498
    -87.00      0.4459      0.4459
    -86.00      0.4424      0.4424
    -85.00      0.4388      0.4388
    -84.00      0.4352      0.4352
    -83.00      0.4316      0.4316
    -82.00      0.4279      0.4279
    -81.00      0.4240      0.4240
    -80.00      0.4199      0.4199
    -79.00      0.4155      0.4155
    -78.00      0.4111      0.4111
    -77.00      0.4064      0.4064
    -76.00      0.4016      0.4016
    -75.00      0.3968      0.3968