IEA-15-240-RWT_AeroDyn15_Polar_34; 2 361 2 361 2 361
                0.0000      1.0000
   -180.00      0.0000      0.0000
   -179.00      0.0245      0.0245
   -178.00      0.0490      0.0490
   -177.00      0.0734      0.0734
   -176.00      0.0979      0.0979
   -175.00      0.1224      0.1224
   -174.00      0.1469      0.1469
   -173.00      0.1714      0.1714
   -172.00      0.1958      0.1958
   -171.00      0.2203      0.2203
   -170.00      0.2448      0.2448
   -169.00      0.2693      0.2693
   -168.00      0.2938      0.2938
   -167.00      0.3183      0.3183
   -166.00      0.3427      0.3427
   -165.00      0.3672      0.3672
   -164.00      0.3917      0.3917
   -163.00      0.4162      0.4162
   -162.00      0.4407      0.4407
   -161.00      0.4651      0.4651
   -160.00      0.4896      0.4896
   -159.00      0.5141      0.5141
   -158.00      0.5386      0.5386
   -157.00      0.5631      0.5631
   -156.00      0.5876      0.5876
   -155.00      0.6120      0.6120
   -154.00      0.6365      0.6365
   -153.00      0.6610      0.6610
   -152.00      0.6870      0.6870
   -151.00      0.7129      0.7129
   -150.00      0.7344      0.7344
   -149.00      0.7533      0.7533
   -148.00      0.7696      0.7696
   -147.00      0.7765      0.7765
   -146.00      0.7727      0.7727
   -145.00      0.7643      0.7643
   -144.00      0.7559      0.7559
   -143.00      0.7491      0.7491
   -142.00      0.7423      0.7423
   -141.00      0.7353      0.7353
   -140.00      0.7281      0.7281
   -139.00      0.7209      0.7209
   -138.00      0.7134      0.7134
   -137.00      0.7058      0.7058
   -136.00      0.6980      0.6980
   -135.00      0.6899      0.6899
   -134.00      0.6815      0.6815
   -133.00      0.6728      0.6728
   -132.00      0.6637      0.6637
   -131.00      0.6542      0.6542
   -130.00      0.6442      0.6442
   -129.00      0.6338      0.6338
   -128.00      0.6231      0.6231
   -127.00      0.6119      0.6119
   -126.00      0.6004      0.6004
   -125.00      0.5887      0.5887
   -124.00      0.5766      0.5766
   -123.00      0.5641      0.5641
   -122.00      0.5510      0.5510
   -121.00      0.5374      0.5374
   -120.00      0.5234      0.5234
   -119.00      0.5092      0.5092
   -118.00      0.4947      0.4947
   -117.00      0.4799      0.4799
   -116.00      0.4648      0.4648
   -115.00      0.4494      0.4494
   -114.00      0.4337      0.4337
   -113.00      0.4177      0.4177
   -112.00      0.4014      0.4014
   -111.00      0.3848      0.3848
   -110.00      0.3678      0.3678
   -109.00      0.3504      0.3504
   -108.00      0.3329      0.3329
   -107.00      0.3152      0.3152
   -106.00      0.2973      0.2973
   -105.00      0.2792      0.2792
   -104.00      0.2611      0.2611
   -103.00      0.2428      0.2428
   -102.00      0.2243      0.2243
   -101.00      0.2057      0.2057
   -100.00      0.1870      0.1870
    -99.00      0.1682      0.1682
    -98.00      0.1495      0.1495
    -97.00      0.1307      0.1307
    -96.00      0.1119      0.1119
    -95.00      0.0931      0.0931
    -94.00      0.0744      0.0744
    -93.00      0.0557      0.0557
    -92.00      0.0371      0.0371
    -91.00      0.0186      0.0186
    -90.00     -0.0000     -0.0000
    -89.00     -0.0186     -0.0186
    -88.00     -0.0371     -0.0371
    -87.00     -0.0557     -0.0557
    -86.00     -0.0744     -0.0744
    -85.00     -0.0931     -0.0931
    -84.00     -0.1119     -0.1119
    -83.00     -0.1307     -0.1307
    -82.00     -0.1495     -0.1495
    -81.00     -0.1682     -0.1682
    -80.00     -0.1870     -0.1870
    -79.00     -0.2057     -0.2057
    -78.00     -0.2243     -0.2243
    -77.00     -0.2428     -0.2428
    -76.00     -0.2611     -0.2611
    -75.00     -0.2792     -0.2792
    -74.00     -0.2973     -0.2973
    -73.00     -0.3152     -0.3152
    -72.00     -0.3329     -0.3329
    -71.00     -0.3504     -0.3504
    -70.00     -0.3678     -0.3678
    -69.00     -0.3848     -0.3848
    -68.00     -0.4014     -0.4014
    -67.00     -0.4177     -0.4177
    -66.00     -0.4337     -0.4337
    -65.00     -0.4494     -0.4494
    -64.00     -0.4648     -0.4648
    -63.00     -0.4799     -0.4799
    -62.00     -0.4947     -0.4947
    -61.00     -0.5092     -0.5092
    -60.00     -0.5234     -0.5234
    -59.00     -0.5374     -0.5374
    -58.00     -0.5510     -0.5510
    -57.00     -0.5641     -0.5641
    -56.00     -0.5766     -0.5766
    -55.00     -0.5887     -0.5887
    -54.00     -0.6004     -0.6004
    -53.00     -0.6119     -0.6119
    -52.00     -0.6231     -0.6231
    -51.00     -0.6338     -0.6338
    -50.00     -0.6442     -0.6442
    -49.00     -0.6542     -0.6542
    -48.00     -0.6637     -0.6637
    -47.00     -0.6747     -0.6747
    -46.00     -0.6852     -0.6852
    -45.00     -0.6899     -0.6899
    -44.00     -0.6874     -0.6874
    -43.00     -0.6817     -0.6817
    -42.00     -0.6759     -0.6759
    -41.00     -0.6709     -0.6709
    -40.00     -0.6656     -0.6656
    -39.00     -0.6603     -0.6603
    -38.00     -0.6537     -0.6537
    -37.00     -0.6470     -0.6470
    -36.00     -0.6439     -0.6439
    -35.00     -0.6440     -0.6440
    -34.00     -0.6442     -0.6442
    -33.00     -0.6446     -0.6446
    -32.00     -0.6619     -0.6619
    -31.00     -0.7021     -0.7021
    -30.00     -0.7488     -0.7488
    -29.00     -0.8031     -0.8031
    -28.00     -0.8579     -0.8579
    -27.00     -0.9036     -0.9036
    -26.00     -0.9467     -0.9467
    -25.00     -0.9909     -0.9909
    -24.00     -1.0452     -1.0452
    -23.00     -1.0649     -1.0649
    -22.00     -1.0839     -1.0839
    -21.00     -1.1029     -1.1029
    -20.00     -1.1200     -1.1200
    -19.00     -1.1233     -1.1233
    -18.00     -1.1238     -1.1238
    -17.00     -1.1173     -1.1173
    -16.00     -1.1096     -1.1096
    -15.00     -1.0938     -1.0938
    -14.00     -1.0792     -1.0792
    -13.00     -1.0625     -1.0625
    -12.00     -1.0403     -1.0403
    -11.00     -0.9819     -0.9819
    -10.00     -0.9204     -0.9204
     -9.00     -0.7879     -0.7879
     -8.00     -0.6542     -0.6542
     -7.00     -0.5214     -0.5214
     -6.00     -0.3892     -0.3892
     -5.00     -0.2600     -0.2600
     -4.00     -0.1313     -0.1313
     -3.00     -0.0046     -0.0046
     -2.00      0.1219      0.1219
     -1.00      0.2475      0.2475
      0.00      0.3724      0.3724
      1.00      0.4973      0.4973
      2.00      0.6208      0.6208
      3.00      0.7432      0.7432
      4.00      0.8646      0.8646
      5.00      0.9841      0.9841
      6.00      1.1011      1.1011
      7.00      1.2152      1.2152
      8.00      1.3250      1.3250
      9.00      1.4304      1.4304
     10.00      1.5321      1.5321
     11.00      1.6264      1.6264
     12.00      1.7134      1.7134
     13.00      1.7890      1.7890
     14.00      1.8412      1.8412
     15.00      1.8698      1.8698
     16.00      1.8489      1.8489
     17.00      1.7713      1.7713
     18.00      1.6909      1.6909
     19.00      1.6047      1.6047
     20.00      1.5216      1.5216
     21.00      1.4621      1.4621
     22.00      1.4061      1.4061
     23.00      1.3489      1.3489
     24.00      1.2899      1.2899
     25.00      1.2423      1.2423
     26.00      1.2022      1.2022
     27.00      1.1632      1.1632
     28.00      1.1259      1.1259
     29.00      1.0806      1.0806
     30.00      1.0394      1.0394
     31.00      1.0037      1.0037
     32.00      0.9726      0.9726
     33.00      0.9593      0.9593
     34.00      0.9608      0.9608
     35.00      0.9641      0.9641
     36.00      0.9674      0.9674
     37.00      0.9702      0.9702
     38.00      0.9729      0.9729
     39.00      0.9754      0.9754
     40.00      0.9777      0.9777
     41.00      0.9798      0.9798
     42.00      0.9816      0.9816
     43.00      0.9834      0.9834
     44.00      0.9850      0.9850
     45.00      0.9856      0.9856
     46.00      0.9789      0.9789
     47.00      0.9638      0.9638
     48.00      0.9482      0.9482
     49.00      0.9345      0.9345
     50.00      0.9203      0.9203
     51.00      0.9055      0.9055
     52.00      0.8901      0.8901
     53.00      0.8741      0.8741
     54.00      0.8577      0.8577
     55.00      0.8409      0.8409
     56.00      0.8237      0.8237
     57.00      0.8059      0.8059
     58.00      0.7871      0.7871
     59.00      0.7677      0.7677
     60.00      0.7478      0.7478
     61.00      0.7275      0.7275
     62.00      0.7067      0.7067
     63.00      0.6855      0.6855
     64.00      0.6640      0.6640
     65.00      0.6420      0.6420
     66.00      0.6196      0.6196
     67.00      0.5968      0.5968
     68.00      0.5735      0.5735
     69.00      0.5497      0.5497
     70.00      0.5254      0.5254
     71.00      0.5006      0.5006
     72.00      0.4755      0.4755
     73.00      0.4502      0.4502
     74.00      0.4247      0.4247
     75.00      0.3989      0.3989
     76.00      0.3730      0.3730
     77.00      0.3468      0.3468
     78.00      0.3205      0.3205
     79.00      0.2939      0.2939
     80.00      0.2672      0.2672
     81.00      0.2404      0.2404
     82.00      0.2135      0.2135
     83.00      0.1867      0.1867
     84.00      0.1598      0.1598
     85.00      0.1330      0.1330
     86.00      0.1063      0.1063
     87.00      0.0796      0.0796
     88.00      0.0520      0.0520
     89.00      0.0244      0.0244
     90.00      0.0000      0.0000
     91.00     -0.0200     -0.0200
     92.00     -0.0378     -0.0378
     93.00     -0.0557     -0.0557
     94.00     -0.0744     -0.0744
     95.00     -0.0931     -0.0931
     96.00     -0.1119     -0.1119
     97.00     -0.1307     -0.1307
     98.00     -0.1495     -0.1495
     99.00     -0.1682     -0.1682
    100.00     -0.1870     -0.1870
    101.00     -0.2057     -0.2057
    102.00     -0.2243     -0.2243
    103.00     -0.2428     -0.2428
    104.00     -0.2611     -0.2611
    105.00     -0.2792     -0.2792
    106.00     -0.2973     -0.2973
    107.00     -0.3152     -0.3152
    108.00     -0.3329     -0.3329
    109.00     -0.3504     -0.3504
    110.00     -0.3678     -0.3678
    111.00     -0.3848     -0.3848
    112.00     -0.4014     -0.4014
    113.00     -0.4177     -0.4177
    114.00     -0.4337     -0.4337
    115.00     -0.4494     -0.4494
    116.00     -0.4648     -0.4648
    117.00     -0.4799     -0.4799
    118.00     -0.4947     -0.4947
    119.00     -0.5092     -0.5092
    120.00     -0.5234     -0.5234
    121.00     -0.5374     -0.5374
    122.00     -0.5510     -0.5510
    123.00     -0.5641     -0.5641
    124.00     -0.5766     -0.5766
    125.00     -0.5887     -0.5887
    126.00     -0.6004     -0.6004
    127.00     -0.6119     -0.6119
    128.00     -0.6231     -0.6231
    129.00     -0.6338     -0.6338
    130.00     -0.6442     -0.6442
    131.00     -0.6542     -0.6542
    132.00     -0.6637     -0.6637
    133.00     -0.6728     -0.6728
    134.00     -0.6815     -0.6815
    135.00     -0.6899     -0.6899
    136.00     -0.6980     -0.6980
    137.00     -0.7058     -0.7058
    138.00     -0.7134     -0.7134
    139.00     -0.7209     -0.7209
    140.00     -0.7281     -0.7281
    141.00     -0.7353     -0.7353
    142.00     -0.7423     -0.7423
    143.00     -0.7491     -0.7491
    144.00     -0.7559     -0.7559
    145.00     -0.7643     -0.7643
    146.00     -0.7727     -0.7727
    147.00     -0.7765     -0.7765
    148.00     -0.7696     -0.7696
    149.00     -0.7533     -0.7533
    150.00     -0.7344     -0.7344
    151.00     -0.7129     -0.7129
    152.00     -0.6869     -0.6869
    153.00     -0.6610     -0.6610
    154.00     -0.6365     -0.6365
    155.00     -0.6120     -0.6120
    156.00     -0.5875     -0.5875
    157.00     -0.5631     -0.5631
    158.00     -0.5386     -0.5386
    159.00     -0.5141     -0.5141
    160.00     -0.4896     -0.4896
    161.00     -0.4651     -0.4651
    162.00     -0.4407     -0.4407
    163.00     -0.4162     -0.4162
    164.00     -0.3917     -0.3917
    165.00     -0.3672     -0.3672
    166.00     -0.3427     -0.3427
    167.00     -0.3183     -0.3183
    168.00     -0.2938     -0.2938
    169.00     -0.2693     -0.2693
    170.00     -0.2448     -0.2448
    171.00     -0.2203     -0.2203
    172.00     -0.1958     -0.1958
    173.00     -0.1714     -0.1714
    174.00     -0.1469     -0.1469
    175.00     -0.1224     -0.1224
    176.00     -0.0979     -0.0979
    177.00     -0.0734     -0.0734
    178.00     -0.0490     -0.0490
    179.00     -0.0245     -0.0245
    180.00      0.0000      0.0000
                0.0000      1.0000
   -180.00      0.0161      0.0161
   -179.00      0.0163      0.0163
   -178.00      0.0168      0.0168
   -177.00      0.0174      0.0174
   -176.00      0.0183      0.0183
   -175.00      0.0196      0.0196
   -174.00      0.0211      0.0211
   -173.00      0.0226      0.0226
   -172.00      0.0245      0.0245
   -171.00      0.0270      0.0270
   -170.00      0.0311      0.0311
   -169.00      0.0372      0.0372
   -168.00      0.0447      0.0447
   -167.00      0.0545      0.0545
   -166.00      0.0670      0.0670
   -165.00      0.0803      0.0803
   -164.00      0.0938      0.0938
   -163.00      0.1083      0.1083
   -162.00      0.1235      0.1235
   -161.00      0.1396      0.1396
   -160.00      0.1566      0.1566
   -159.00      0.1742      0.1742
   -158.00      0.1925      0.1925
   -157.00      0.2116      0.2116
   -156.00      0.2312      0.2312
   -155.00      0.2513      0.2513
   -154.00      0.2720      0.2720
   -153.00      0.2933      0.2933
   -152.00      0.3151      0.3151
   -151.00      0.3374      0.3374
   -150.00      0.3603      0.3603
   -149.00      0.3837      0.3837
   -148.00      0.4077      0.4077
   -147.00      0.4319      0.4319
   -146.00      0.4563      0.4563
   -145.00      0.4809      0.4809
   -144.00      0.5059      0.5059
   -143.00      0.5314      0.5314
   -142.00      0.5573      0.5573
   -141.00      0.5833      0.5833
   -140.00      0.6093      0.6093
   -139.00      0.6355      0.6355
   -138.00      0.6618      0.6618
   -137.00      0.6882      0.6882
   -136.00      0.7147      0.7147
   -135.00      0.7412      0.7412
   -134.00      0.7677      0.7677
   -133.00      0.7943      0.7943
   -132.00      0.8207      0.8207
   -131.00      0.8469      0.8469
   -130.00      0.8730      0.8730
   -129.00      0.8989      0.8989
   -128.00      0.9245      0.9245
   -127.00      0.9499      0.9499
   -126.00      0.9751      0.9751
   -125.00      1.0002      1.0002
   -124.00      1.0250      1.0250
   -123.00      1.0493      1.0493
   -122.00      1.0731      1.0731
   -121.00      1.0964      1.0964
   -120.00      1.1193      1.1193
   -119.00      1.1417      1.1417
   -118.00      1.1637      1.1637
   -117.00      1.1852      1.1852
   -116.00      1.2063      1.2063
   -115.00      1.2269      1.2269
   -114.00      1.2470      1.2470
   -113.00      1.2665      1.2665
   -112.00      1.2855      1.2855
   -111.00      1.3035      1.3035
   -110.00      1.3206      1.3206
   -109.00      1.3368      1.3368
   -108.00      1.3524      1.3524
   -107.00      1.3674      1.3674
   -106.00      1.3818      1.3818
   -105.00      1.3955      1.3955
   -104.00      1.4086      1.4086
   -103.00      1.4211      1.4211
   -102.00      1.4325      1.4325
   -101.00      1.4429      1.4429
   -100.00      1.4524      1.4524
    -99.00      1.4608      1.4608
    -98.00      1.4683      1.4683
    -97.00      1.4750      1.4750
    -96.00      1.4808      1.4808
    -95.00      1.4859      1.4859
    -94.00      1.4904      1.4904
    -93.00      1.4939      1.4939
    -92.00      1.4967      1.4967
    -91.00      1.4990      1.4990
    -90.00      1.5000      1.5000
    -89.00      1.4990      1.4990
    -88.00      1.4967      1.4967
    -87.00      1.4939      1.4939
    -86.00      1.4904      1.4904
    -85.00      1.4859      1.4859
    -84.00      1.4808      1.4808
    -83.00      1.4750      1.4750
    -82.00      1.4683      1.4683
    -81.00      1.4608      1.4608
    -80.00      1.4524      1.4524
    -79.00      1.4429      1.4429
    -78.00      1.4325      1.4325
    -77.00      1.4211      1.4211
    -76.00      1.4086      1.4086
    -75.00      1.3955      1.3955
    -74.00      1.3818      1.3818
    -73.00      1.3674      1.3674
    -72.00      1.3524      1.3524
    -71.00      1.3368      1.3368
    -70.00      1.3206      1.3206
    -69.00      1.3035      1.3035
    -68.00      1.2855      1.2855
    -67.00      1.2665      1.2665
    -66.00      1.2470      1.2470
    -65.00      1.2269      1.2269
    -64.00      1.2063      1.2063
    -63.00      1.1852      1.1852
    -62.00      1.1637      1.1637
    -61.00      1.1417      1.1417
    -60.00      1.1193      1.1193
    -59.00      1.0964      1.0964
    -58.00      1.0731      1.0731
    -57.00      1.0493      1.0493
    -56.00      1.0250      1.0250
    -55.00      1.0002      1.0002
    -54.00      0.9751      0.9751
    -53.00      0.9499      0.9499
    -52.00      0.9245      0.9245
    -51.00      0.8989      0.8989
    -50.00      0.8730      0.8730
    -49.00      0.8469      0.8469
    -48.00      0.8207      0.8207
    -47.00      0.7943      0.7943
    -46.00      0.7677      0.7677
    -45.00      0.7412      0.7412
    -44.00      0.7147      0.7147
    -43.00      0.6882      0.6882
    -42.00      0.6618      0.6618
    -41.00      0.6355      0.6355
    -40.00      0.6093      0.6093
    -39.00      0.5833      0.5833
    -38.00      0.5573      0.5573
    -37.00      0.5314      0.5314
    -36.00      0.5059      0.5059
    -35.00      0.4819      0.4819
    -34.00      0.4583      0.4583
    -33.00      0.4319      0.4319
    -32.00      0.4004      0.4004
    -31.00      0.3649      0.3649
    -30.00      0.3273      0.3273
    -29.00      0.2869      0.2869
    -28.00      0.2478      0.2478
    -27.00      0.2210      0.2210
    -26.00      0.1962      0.1962
    -25.00      0.1714      0.1714
    -24.00      0.1460      0.1460
    -23.00      0.1317      0.1317
    -22.00      0.1179      0.1179
    -21.00      0.1040      0.1040
    -20.00      0.0906      0.0906
    -19.00      0.0806      0.0806
    -18.00      0.0712      0.0712
    -17.00      0.0632      0.0632
    -16.00      0.0553      0.0553
    -15.00      0.0486      0.0486
    -14.00      0.0421      0.0421
    -13.00      0.0356      0.0356
    -12.00      0.0291      0.0291
    -11.00      0.0235      0.0235
    -10.00      0.0180      0.0180
     -9.00      0.0144      0.0144
     -8.00      0.0112      0.0112
     -7.00      0.0100      0.0100
     -6.00      0.0089      0.0089
     -5.00      0.0082      0.0082
     -4.00      0.0076      0.0076
     -3.00      0.0074      0.0074
     -2.00      0.0073      0.0073
     -1.00      0.0073      0.0073
      0.00      0.0073      0.0073
      1.00      0.0075      0.0075
      2.00      0.0076      0.0076
      3.00      0.0079      0.0079
      4.00      0.0082      0.0082
      5.00      0.0087      0.0087
      6.00      0.0093      0.0093
      7.00      0.0101      0.0101
      8.00      0.0112      0.0112
      9.00      0.0124      0.0124
     10.00      0.0138      0.0138
     11.00      0.0154      0.0154
     12.00      0.0172      0.0172
     13.00      0.0196      0.0196
     14.00      0.0234      0.0234
     15.00      0.0290      0.0290
     16.00      0.0383      0.0383
     17.00      0.0534      0.0534
     18.00      0.0690      0.0690
     19.00      0.0875      0.0875
     20.00      0.1064      0.1064
     21.00      0.1269      0.1269
     22.00      0.1479      0.1479
     23.00      0.1671      0.1671
     24.00      0.1872      0.1872
     25.00      0.2110      0.2110
     26.00      0.2353      0.2353
     27.00      0.2593      0.2593
     28.00      0.2837      0.2837
     29.00      0.3134      0.3134
     30.00      0.3449      0.3449
     31.00      0.3753      0.3753
     32.00      0.4044      0.4044
     33.00      0.4319      0.4319
     34.00      0.4573      0.4573
     35.00      0.4814      0.4814
     36.00      0.5059      0.5059
     37.00      0.5314      0.5314
     38.00      0.5573      0.5573
     39.00      0.5833      0.5833
     40.00      0.6093      0.6093
     41.00      0.6355      0.6355
     42.00      0.6618      0.6618
     43.00      0.6882      0.6882
     44.00      0.7147      0.7147
     45.00      0.7412      0.7412
     46.00      0.7677      0.7677
     47.00      0.7943      0.7943
     48.00      0.8207      0.8207
     49.00      0.8469      0.8469
     50.00      0.8730      0.8730
     51.00      0.8989      0.8989
     52.00      0.9245      0.9245
     53.00      0.9499      0.9499
     54.00      0.9751      0.9751
     55.00      1.0002      1.0002
     56.00      1.0250      1.0250
     57.00      1.0493      1.0493
     58.00      1.0731      1.0731
     59.00      1.0964      1.0964
     60.00      1.1193      1.1193
     61.00      1.1417      1.1417
     62.00      1.1637      1.1637
     63.00      1.1852      1.1852
     64.00      1.2063      1.2063
     65.00      1.2269      1.2269
     66.00      1.2470      1.2470
     67.00      1.2665      1.2665
     68.00      1.2855      1.2855
     69.00      1.3035      1.3035
     70.00      1.3206      1.3206
     71.00      1.3368      1.3368
     72.00      1.3524      1.3524
     73.00      1.3674      1.3674
     74.00      1.3818      1.3818
     75.00      1.3955      1.3955
     76.00      1.4086      1.4086
     77.00      1.4211      1.4211
     78.00      1.4325      1.4325
     79.00      1.4429      1.4429
     80.00      1.4524      1.4524
     81.00      1.4608      1.4608
     82.00      1.4683      1.4683
     83.00      1.4750      1.4750
     84.00      1.4808      1.4808
     85.00      1.4859      1.4859
     86.00      1.4904      1.4904
     87.00      1.4939      1.4939
     88.00      1.4967      1.4967
     89.00      1.4990      1.4990
     90.00      1.5000      1.5000
     91.00      1.4990      1.4990
     92.00      1.4967      1.4967
     93.00      1.4939      1.4939
     94.00      1.4904      1.4904
     95.00      1.4859      1.4859
     96.00      1.4808      1.4808
     97.00      1.4750      1.4750
     98.00      1.4683      1.4683
     99.00      1.4608      1.4608
    100.00      1.4524      1.4524
    101.00      1.4429      1.4429
    102.00      1.4325      1.4325
    103.00      1.4211      1.4211
    104.00      1.4086      1.4086
    105.00      1.3955      1.3955
    106.00      1.3818      1.3818
    107.00      1.3674      1.3674
    108.00      1.3524      1.3524
    109.00      1.3368      1.3368
    110.00      1.3206      1.3206
    111.00      1.3035      1.3035
    112.00      1.2855      1.2855
    113.00      1.2665      1.2665
    114.00      1.2470      1.2470
    115.00      1.2269      1.2269
    116.00      1.2063      1.2063
    117.00      1.1852      1.1852
    118.00      1.1637      1.1637
    119.00      1.1417      1.1417
    120.00      1.1193      1.1193
    121.00      1.0964      1.0964
    122.00      1.0731      1.0731
    123.00      1.0493      1.0493
    124.00      1.0250      1.0250
    125.00      1.0002      1.0002
    126.00      0.9751      0.9751
    127.00      0.9499      0.9499
    128.00      0.9245      0.9245
    129.00      0.8989      0.8989
    130.00      0.8730      0.8730
    131.00      0.8469      0.8469
    132.00      0.8207      0.8207
    133.00      0.7943      0.7943
    134.00      0.7677      0.7677
    135.00      0.7412      0.7412
    136.00      0.7147      0.7147
    137.00      0.6882      0.6882
    138.00      0.6618      0.6618
    139.00      0.6355      0.6355
    140.00      0.6093      0.6093
    141.00      0.5833      0.5833
    142.00      0.5573      0.5573
    143.00      0.5314      0.5314
    144.00      0.5059      0.5059
    145.00      0.4809      0.4809
    146.00      0.4563      0.4563
    147.00      0.4319      0.4319
    148.00      0.4077      0.4077
    149.00      0.3837      0.3837
    150.00      0.3603      0.3603
    151.00      0.3374      0.3374
    152.00      0.3151      0.3151
    153.00      0.2933      0.2933
    154.00      0.2720      0.2720
    155.00      0.2513      0.2513
    156.00      0.2312      0.2312
    157.00      0.2116      0.2116
    158.00      0.1926      0.1926
    159.00      0.1742      0.1742
    160.00      0.1566      0.1566
    161.00      0.1396      0.1396
    162.00      0.1235      0.1235
    163.00      0.1083      0.1083
    164.00      0.0938      0.0938
    165.00      0.0803      0.0803
    166.00      0.0670      0.0670
    167.00      0.0545      0.0545
    168.00      0.0447      0.0447
    169.00      0.0372      0.0372
    170.00      0.0311      0.0311
    171.00      0.0270      0.0270
    172.00      0.0245      0.0245
    173.00      0.0226      0.0226
    174.00      0.0211      0.0211
    175.00      0.0196      0.0196
    176.00      0.0183      0.0183
    177.00      0.0174      0.0174
    178.00      0.0168      0.0168
    179.00      0.0163      0.0163
    180.00      0.0161      0.0161
                0.0000      1.0000
   -180.00      0.0000      0.0000
   -179.00      0.0400      0.0400
   -178.00      0.0800      0.0800
   -177.00      0.1200      0.1200
   -176.00      0.1600      0.1600
   -175.00      0.2000      0.2000
   -174.00      0.2400      0.2400
   -173.00      0.2852      0.2852
   -172.00      0.3304      0.3304
   -171.00      0.3600      0.3600
   -170.00      0.3754      0.3754
   -169.00      0.3868      0.3868
   -168.00      0.3912      0.3912
   -167.00      0.3888      0.3888
   -166.00      0.3834      0.3834
   -165.00      0.3781      0.3781
   -164.00      0.3729      0.3729
   -163.00      0.3677      0.3677
   -162.00      0.3649      0.3649
   -161.00      0.3643      0.3643
   -160.00      0.3639      0.3639
   -159.00      0.3637      0.3637
   -158.00      0.3679      0.3679
   -157.00      0.3772      0.3772
   -156.00      0.3864      0.3864
   -155.00      0.3941      0.3941
   -154.00      0.4017      0.4017
   -153.00      0.4091      0.4091
   -152.00      0.4174      0.4174
   -151.00      0.4254      0.4254
   -150.00      0.4300      0.4300
   -149.00      0.4315      0.4315
   -148.00      0.4325      0.4325
   -147.00      0.4332      0.4332
   -146.00      0.4337      0.4337
   -145.00      0.4341      0.4341
   -144.00      0.4346      0.4346
   -143.00      0.4351      0.4351
   -142.00      0.4356      0.4356
   -141.00      0.4362      0.4362
   -140.00      0.4370      0.4370
   -139.00      0.4380      0.4380
   -138.00      0.4390      0.4390
   -137.00      0.4399      0.4399
   -136.00      0.4408      0.4408
   -135.00      0.4418      0.4418
   -134.00      0.4427      0.4427
   -133.00      0.4436      0.4436
   -132.00      0.4446      0.4446
   -131.00      0.4458      0.4458
   -130.00      0.4472      0.4472
   -129.00      0.4486      0.4486
   -128.00      0.4501      0.4501
   -127.00      0.4517      0.4517
   -126.00      0.4534      0.4534
   -125.00      0.4551      0.4551
   -124.00      0.4568      0.4568
   -123.00      0.4586      0.4586
   -122.00      0.4602      0.4602
   -121.00      0.4619      0.4619
   -120.00      0.4634      0.4634
   -119.00      0.4649      0.4649
   -118.00      0.4663      0.4663
   -117.00      0.4676      0.4676
   -116.00      0.4689      0.4689
   -115.00      0.4701      0.4701
   -114.00      0.4713      0.4713
   -113.00      0.4727      0.4727
   -112.00      0.4741      0.4741
   -111.00      0.4750      0.4750
   -110.00      0.4754      0.4754
   -109.00      0.4756      0.4756
   -108.00      0.4758      0.4758
   -107.00      0.4759      0.4759
   -106.00      0.4760      0.4760
   -105.00      0.4761      0.4761
   -104.00      0.4760      0.4760
   -103.00      0.4759      0.4759
   -102.00      0.4757      0.4757
   -101.00      0.4753      0.4753
   -100.00      0.4746      0.4746
    -99.00      0.4737      0.4737
    -98.00      0.4725      0.4725
    -97.00      0.4710      0.4710
    -96.00      0.4695      0.4695
    -95.00      0.4679      0.4679
    -94.00      0.4662      0.4662
    -93.00      0.4646      0.4646
    -92.00      0.4631      0.4631
    -91.00      0.4616      0.4616
    -90.00      0.4597      0.4597
    -89.00      0.4566      0.4566
    -88.00      0.4526      0.4526
    -87.00      0.4486      0.4486
    -86.00      0.4449      0.4449
    -85.00      0.4412      0.4412
    -84.00      0.4375      0.4375
    -83.00      0.4337      0.4337
    -82.00      0.4299      0.4299
    -81.00      0.4259      0.4259
    -80.00      0.4217      0.4217
    -79.00      0.4172      0.4172
    -78.00      0.4127      0.4127
    -77.00      0.4079      0.4079
    -76.00      0.4031      0.4031
    -75.00      0.3982      0.3982