IEA-15-240-RWT_AeroDyn15_Polar_37; 2 361 2 361 2 361
                0.0000      1.0000
   -180.00      0.0000      0.0000
   -179.00      0.0237      0.0237
   -178.00      0.0474      0.0474
   -177.00      0.0711      0.0711
   -176.00      0.0947      0.0947
   -175.00      0.1184      0.1184
   -174.00      0.1421      0.1421
   -173.00      0.1658      0.1658
   -172.00      0.1895      0.1895
   -171.00      0.2132      0.2132
   -170.00      0.2369      0.2369
   -169.00      0.2605      0.2605
   -168.00      0.2842      0.2842
   -167.00      0.3079      0.3079
   -166.00      0.3316      0.3316
   -165.00      0.3553      0.3553
   -164.00      0.3790      0.3790
   -163.00      0.4027      0.4027
   -162.00      0.4264      0.4264
   -161.00      0.4500      0.4500
   -160.00      0.4737      0.4737
   -159.00      0.4974      0.4974
   -158.00      0.5211      0.5211
   -157.00      0.5448      0.5448
   -156.00      0.5685      0.5685
   -155.00      0.5922      0.5922
   -154.00      0.6158      0.6158
   -153.00      0.6395      0.6395
   -152.00      0.6646      0.6646
   -151.00      0.6897      0.6897
   -150.00      0.7106      0.7106
   -149.00      0.7291      0.7291
   -148.00      0.7451      0.7451
   -147.00      0.7520      0.7520
   -146.00      0.7487      0.7487
   -145.00      0.7415      0.7415
   -144.00      0.7341      0.7341
   -143.00      0.7281      0.7281
   -142.00      0.7220      0.7220
   -141.00      0.7157      0.7157
   -140.00      0.7093      0.7093
   -139.00      0.7026      0.7026
   -138.00      0.6958      0.6958
   -137.00      0.6888      0.6888
   -136.00      0.6815      0.6815
   -135.00      0.6740      0.6740
   -134.00      0.6660      0.6660
   -133.00      0.6577      0.6577
   -132.00      0.6491      0.6491
   -131.00      0.6399      0.6399
   -130.00      0.6304      0.6304
   -129.00      0.6205      0.6205
   -128.00      0.6103      0.6103
   -127.00      0.5998      0.5998
   -126.00      0.5889      0.5889
   -125.00      0.5778      0.5778
   -124.00      0.5663      0.5663
   -123.00      0.5544      0.5544
   -122.00      0.5418      0.5418
   -121.00      0.5287      0.5287
   -120.00      0.5152      0.5152
   -119.00      0.5015      0.5015
   -118.00      0.4874      0.4874
   -117.00      0.4731      0.4731
   -116.00      0.4584      0.4584
   -115.00      0.4435      0.4435
   -114.00      0.4282      0.4282
   -113.00      0.4126      0.4126
   -112.00      0.3967      0.3967
   -111.00      0.3804      0.3804
   -110.00      0.3637      0.3637
   -109.00      0.3467      0.3467
   -108.00      0.3295      0.3295
   -107.00      0.3122      0.3122
   -106.00      0.2946      0.2946
   -105.00      0.2769      0.2769
   -104.00      0.2591      0.2591
   -103.00      0.2410      0.2410
   -102.00      0.2229      0.2229
   -101.00      0.2045      0.2045
   -100.00      0.1860      0.1860
    -99.00      0.1674      0.1674
    -98.00      0.1488      0.1488
    -97.00      0.1301      0.1301
    -96.00      0.1115      0.1115
    -95.00      0.0928      0.0928
    -94.00      0.0742      0.0742
    -93.00      0.0556      0.0556
    -92.00      0.0370      0.0370
    -91.00      0.0185      0.0185
    -90.00     -0.0000     -0.0000
    -89.00     -0.0185     -0.0185
    -88.00     -0.0370     -0.0370
    -87.00     -0.0556     -0.0556
    -86.00     -0.0742     -0.0742
    -85.00     -0.0928     -0.0928
    -84.00     -0.1115     -0.1115
    -83.00     -0.1301     -0.1301
    -82.00     -0.1488     -0.1488
    -81.00     -0.1674     -0.1674
    -80.00     -0.1860     -0.1860
    -79.00     -0.2045     -0.2045
    -78.00     -0.2229     -0.2229
    -77.00     -0.2410     -0.2410
    -76.00     -0.2591     -0.2591
    -75.00     -0.2769     -0.2769
    -74.00     -0.2946     -0.2946
    -73.00     -0.3122     -0.3122
    -72.00     -0.3295     -0.3295
    -71.00     -0.3467     -0.3467
    -70.00     -0.3637     -0.3637
    -69.00     -0.3804     -0.3804
    -68.00     -0.3967     -0.3967
    -67.00     -0.4126     -0.4126
    -66.00     -0.4282     -0.4282
    -65.00     -0.4435     -0.4435
    -64.00     -0.4584     -0.4584
    -63.00     -0.4731     -0.4731
    -62.00     -0.4874     -0.4874
    -61.00     -0.5015     -0.5015
    -60.00     -0.5152     -0.5152
    -59.00     -0.5287     -0.5287
    -58.00     -0.5418     -0.5418
    -57.00     -0.5544     -0.5544
    -56.00     -0.5663     -0.5663
    -55.00     -0.5778     -0.5778
    -54.00     -0.5889     -0.5889
    -53.00     -0.5998     -0.5998
    -52.00     -0.6103     -0.6103
    -51.00     -0.6205     -0.6205
    -50.00     -0.6304     -0.6304
    -49.00     -0.6399     -0.6399
    -48.00     -0.6491     -0.6491
    -47.00     -0.6595     -0.6595
    -46.00     -0.6695     -0.6695
    -45.00     -0.6740     -0.6740
    -44.00     -0.6711     -0.6711
    -43.00     -0.6648     -0.6648
    -42.00     -0.6583     -0.6583
    -41.00     -0.6526     -0.6526
    -40.00     -0.6467     -0.6467
    -39.00     -0.6407     -0.6407
    -38.00     -0.6345     -0.6345
    -37.00     -0.6281     -0.6281
    -36.00     -0.6216     -0.6216
    -35.00     -0.6137     -0.6137
    -34.00     -0.6057     -0.6057
    -33.00     -0.6020     -0.6020
    -32.00     -0.6098     -0.6098
    -31.00     -0.6283     -0.6283
    -30.00     -0.6501     -0.6501
    -29.00     -0.6764     -0.6764
    -28.00     -0.7083     -0.7083
    -27.00     -0.7889     -0.7889
    -26.00     -0.8755     -0.8755
    -25.00     -0.9645     -0.9645
    -24.00     -1.0587     -1.0587
    -23.00     -1.0847     -1.0847
    -22.00     -1.1093     -1.1093
    -21.00     -1.1339     -1.1339
    -20.00     -1.1564     -1.1564
    -19.00     -1.1632     -1.1632
    -18.00     -1.1675     -1.1675
    -17.00     -1.1667     -1.1667
    -16.00     -1.1656     -1.1656
    -15.00     -1.1636     -1.1636
    -14.00     -1.1588     -1.1588
    -13.00     -1.1283     -1.1283
    -12.00     -1.0880     -1.0880
    -11.00     -0.9903     -0.9903
    -10.00     -0.8855     -0.8855
     -9.00     -0.7588     -0.7588
     -8.00     -0.6320     -0.6320
     -7.00     -0.5049     -0.5049
     -6.00     -0.3777     -0.3777
     -5.00     -0.2500     -0.2500
     -4.00     -0.1224     -0.1224
     -3.00      0.0027      0.0027
     -2.00      0.1276      0.1276
     -1.00      0.2515      0.2515
      0.00      0.3749      0.3749
      1.00      0.4978      0.4978
      2.00      0.6199      0.6199
      3.00      0.7410      0.7410
      4.00      0.8612      0.8612
      5.00      0.9793      0.9793
      6.00      1.0940      1.0940
      7.00      1.2058      1.2058
      8.00      1.3122      1.3122
      9.00      1.4158      1.4158
     10.00      1.5158      1.5158
     11.00      1.6090      1.6090
     12.00      1.6951      1.6951
     13.00      1.7695      1.7695
     14.00      1.8161      1.8161
     15.00      1.8201      1.8201
     16.00      1.7664      1.7664
     17.00      1.6770      1.6770
     18.00      1.5881      1.5881
     19.00      1.5208      1.5208
     20.00      1.4574      1.4574
     21.00      1.4091      1.4091
     22.00      1.3630      1.3630
     23.00      1.3166      1.3166
     24.00      1.2697      1.2697
     25.00      1.2213      1.2213
     26.00      1.1810      1.1810
     27.00      1.1426      1.1426
     28.00      1.1040      1.1040
     29.00      1.0523      1.0523
     30.00      1.0009      1.0009
     31.00      0.9647      0.9647
     32.00      0.9360      0.9360
     33.00      0.9243      0.9243
     34.00      0.9265      0.9265
     35.00      0.9315      0.9315
     36.00      0.9363      0.9363
     37.00      0.9401      0.9401
     38.00      0.9439      0.9439
     39.00      0.9475      0.9475
     40.00      0.9507      0.9507
     41.00      0.9538      0.9538
     42.00      0.9565      0.9565
     43.00      0.9592      0.9592
     44.00      0.9617      0.9617
     45.00      0.9628      0.9628
     46.00      0.9564      0.9564
     47.00      0.9421      0.9421
     48.00      0.9272      0.9272
     49.00      0.9142      0.9142
     50.00      0.9005      0.9005
     51.00      0.8864      0.8864
     52.00      0.8719      0.8719
     53.00      0.8568      0.8568
     54.00      0.8413      0.8413
     55.00      0.8254      0.8254
     56.00      0.8091      0.8091
     57.00      0.7920      0.7920
     58.00      0.7740      0.7740
     59.00      0.7553      0.7553
     60.00      0.7361      0.7361
     61.00      0.7165      0.7165
     62.00      0.6963      0.6963
     63.00      0.6758      0.6758
     64.00      0.6549      0.6549
     65.00      0.6335      0.6335
     66.00      0.6117      0.6117
     67.00      0.5894      0.5894
     68.00      0.5667      0.5667
     69.00      0.5434      0.5434
     70.00      0.5196      0.5196
     71.00      0.4953      0.4953
     72.00      0.4707      0.4707
     73.00      0.4460      0.4460
     74.00      0.4209      0.4209
     75.00      0.3956      0.3956
     76.00      0.3701      0.3701
     77.00      0.3443      0.3443
     78.00      0.3184      0.3184
     79.00      0.2922      0.2922
     80.00      0.2657      0.2657
     81.00      0.2392      0.2392
     82.00      0.2126      0.2126
     83.00      0.1859      0.1859
     84.00      0.1593      0.1593
     85.00      0.1326      0.1326
     86.00      0.1060      0.1060
     87.00      0.0794      0.0794
     88.00      0.0519      0.0519
     89.00      0.0244      0.0244
     90.00      0.0000      0.0000
     91.00     -0.0200     -0.0200
     92.00     -0.0378     -0.0378
     93.00     -0.0556     -0.0556
     94.00     -0.0742     -0.0742
     95.00     -0.0928     -0.0928
     96.00     -0.1115     -0.1115
     97.00     -0.1301     -0.1301
     98.00     -0.1488     -0.1488
     99.00     -0.1674     -0.1674
    100.00     -0.1860     -0.1860
    101.00     -0.2045     -0.2045
    102.00     -0.2229     -0.2229
    103.00     -0.2410     -0.2410
    104.00     -0.2591     -0.2591
    105.00     -0.2769     -0.2769
    106.00     -0.2946     -0.2946
    107.00     -0.3122     -0.3122
    108.00     -0.3295     -0.3295
    109.00     -0.3467     -0.3467
    110.00     -0.3637     -0.3637
    111.00     -0.3804     -0.3804
    112.00     -0.3967     -0.3967
    113.00     -0.4126     -0.4126
    114.00     -0.4282     -0.4282
    115.00     -0.4435     -0.4435
    116.00     -0.4584     -0.4584
    117.00     -0.4731     -0.4731
    118.00     -0.4874     -0.4874
    119.00     -0.5015     -0.5015
    120.00     -0.5152     -0.5152
    121.00     -0.5287     -0.5287
    122.00     -0.5418     -0.5418
    123.00     -0.5544     -0.5544
    124.00     -0.5663     -0.5663
    125.00     -0.5778     -0.5778
    126.00     -0.5889     -0.5889
    127.00     -0.5998     -0.5998
    128.00     -0.6103     -0.6103
    129.00     -0.6205     -0.6205
    130.00     -0.6304     -0.6304
    131.00     -0.6399     -0.6399
    132.00     -0.6491     -0.6491
    133.00     -0.6577     -0.6577
    134.00     -0.6660     -0.6660
    135.00     -0.6740     -0.6740
    136.00     -0.6815     -0.6815
    137.00     -0.6888     -0.6888
    138.00     -0.6958     -0.6958
    139.00     -0.7026     -0.7026
    140.00     -0.7093     -0.7093
    141.00     -0.7157     -0.7157
    142.00     -0.7220     -0.7220
    143.00     -0.7281     -0.7281
    144.00     -0.7341     -0.7341
    145.00     -0.7415     -0.7415
    146.00     -0.7487     -0.7487
    147.00     -0.7520     -0.7520
    148.00     -0.7451     -0.7451
    149.00     -0.7291     -0.7291
    150.00     -0.7106     -0.7106
    151.00     -0.6897     -0.6897
    152.00     -0.6646     -0.6646
    153.00     -0.6395     -0.6395
    154.00     -0.6158     -0.6158
    155.00     -0.5922     -0.5922
    156.00     -0.5685     -0.5685
    157.00     -0.5448     -0.5448
    158.00     -0.5211     -0.5211
    159.00     -0.4974     -0.4974
    160.00     -0.4737     -0.4737
    161.00     -0.4500     -0.4500
    162.00     -0.4263     -0.4263
    163.00     -0.4027     -0.4027
    164.00     -0.3790     -0.3790
    165.00     -0.3553     -0.3553
    166.00     -0.3316     -0.3316
    167.00     -0.3079     -0.3079
    168.00     -0.2842     -0.2842
    169.00     -0.2605     -0.2605
    170.00     -0.2369     -0.2369
    171.00     -0.2132     -0.2132
    172.00     -0.1895     -0.1895
    173.00     -0.1658     -0.1658
    174.00     -0.1421     -0.1421
    175.00     -0.1184     -0.1184
    176.00     -0.0947     -0.0947
    177.00     -0.0711     -0.0711
    178.00     -0.0474     -0.0474
    179.00     -0.0237     -0.0237
    180.00      0.0000      0.0000
                0.0000      1.0000
   -180.00      0.0241      0.0241
   -179.00      0.0243      0.0243
   -178.00      0.0248      0.0248
   -177.00      0.0254      0.0254
   -176.00      0.0263      0.0263
   -175.00      0.0276      0.0276
   -174.00      0.0290      0.0290
   -173.00      0.0305      0.0305
   -172.00      0.0322      0.0322
   -171.00      0.0348      0.0348
   -170.00      0.0408      0.0408
   -169.00      0.0506      0.0506
   -168.00      0.0612      0.0612
   -167.00      0.0721      0.0721
   -166.00      0.0842      0.0842
   -165.00      0.0970      0.0970
   -164.00      0.1104      0.1104
   -163.00      0.1246      0.1246
   -162.00      0.1395      0.1395
   -161.00      0.1553      0.1553
   -160.00      0.1719      0.1719
   -159.00      0.1891      0.1891
   -158.00      0.2070      0.2070
   -157.00      0.2257      0.2257
   -156.00      0.2449      0.2449
   -155.00      0.2647      0.2647
   -154.00      0.2850      0.2850
   -153.00      0.3059      0.3059
   -152.00      0.3273      0.3273
   -151.00      0.3493      0.3493
   -150.00      0.3718      0.3718
   -149.00      0.3949      0.3949
   -148.00      0.4185      0.4185
   -147.00      0.4424      0.4424
   -146.00      0.4664      0.4664
   -145.00      0.4907      0.4907
   -144.00      0.5154      0.5154
   -143.00      0.5405      0.5405
   -142.00      0.5660      0.5660
   -141.00      0.5917      0.5917
   -140.00      0.6174      0.6174
   -139.00      0.6433      0.6433
   -138.00      0.6693      0.6693
   -137.00      0.6953      0.6953
   -136.00      0.7215      0.7215
   -135.00      0.7477      0.7477
   -134.00      0.7739      0.7739
   -133.00      0.8001      0.8001
   -132.00      0.8263      0.8263
   -131.00      0.8522      0.8522
   -130.00      0.8780      0.8780
   -129.00      0.9037      0.9037
   -128.00      0.9291      0.9291
   -127.00      0.9544      0.9544
   -126.00      0.9795      0.9795
   -125.00      1.0044      1.0044
   -124.00      1.0291      1.0291
   -123.00      1.0533      1.0533
   -122.00      1.0769      1.0769
   -121.00      1.1001      1.1001
   -120.00      1.1228      1.1228
   -119.00      1.1451      1.1451
   -118.00      1.1670      1.1670
   -117.00      1.1883      1.1883
   -116.00      1.2093      1.2093
   -115.00      1.2298      1.2298
   -114.00      1.2497      1.2497
   -113.00      1.2691      1.2691
   -112.00      1.2880      1.2880
   -111.00      1.3059      1.3059
   -110.00      1.3228      1.3228
   -109.00      1.3390      1.3390
   -108.00      1.3544      1.3544
   -107.00      1.3693      1.3693
   -106.00      1.3836      1.3836
   -105.00      1.3971      1.3971
   -104.00      1.4102      1.4102
   -103.00      1.4226      1.4226
   -102.00      1.4339      1.4339
   -101.00      1.4441      1.4441
   -100.00      1.4535      1.4535
    -99.00      1.4618      1.4618
    -98.00      1.4691      1.4691
    -97.00      1.4757      1.4757
    -96.00      1.4814      1.4814
    -95.00      1.4864      1.4864
    -94.00      1.4908      1.4908
    -93.00      1.4942      1.4942
    -92.00      1.4969      1.4969
    -91.00      1.4991      1.4991
    -90.00      1.5000      1.5000
    -89.00      1.4991      1.4991
    -88.00      1.4969      1.4969
    -87.00      1.4942      1.4942
    -86.00      1.4908      1.4908
    -85.00      1.4864      1.4864
    -84.00      1.4814      1.4814
    -83.00      1.4757      1.4757
    -82.00      1.4691      1.4691
    -81.00      1.4618      1.4618
    -80.00      1.4535      1.4535
    -79.00      1.4441      1.4441
    -78.00      1.4339      1.4339
    -77.00      1.4226      1.4226
    -76.00      1.4102      1.4102
    -75.00      1.3971      1.3971
    -74.00      1.3836      1.3836
    -73.00      1.3693      1.3693
    -72.00      1.3544      1.3544
    -71.00      1.3390      1.3390
    -70.00      1.3228      1.3228
    -69.00      1.3059      1.3059
    -68.00      1.2880      1.2880
    -67.00      1.2691      1.2691
    -66.00      1.2497      1.2497
    -65.00      1.2298      1.2298
    -64.00      1.2093      1.2093
    -63.00      1.1883      1.1883
    -62.00      1.1670      1.1670
    -61.00      1.1451      1.1451
    -60.00      1.1228      1.1228
    -59.00      1.1001      1.1001
    -58.00      1.0769      1.0769
    -57.00      1.0533      1.0533
    -56.00      1.0291      1.0291
    -55.00      1.0044      1.0044
    -54.00      0.9795      0.9795
    -53.00      0.9544      0.9544
    -52.00      0.9291      0.9291
    -51.00      0.9037      0.9037
    -50.00      0.8780      0.8780
    -49.00      0.8522      0.8522
    -48.00      0.8263      0.8263
    -47.00      0.8001      0.8001
    -46.00      0.7739      0.7739
    -45.00      0.7477      0.7477
    -44.00      0.7215      0.7215
    -43.00      0.6953      0.6953
    -42.00      0.6693      0.6693
    -41.00      0.6433      0.6433
    -40.00      0.6174      0.6174
    -39.00      0.5917      0.5917
    -38.00      0.5660      0.5660
    -37.00      0.5405      0.5405
    -36.00      0.5154      0.5154
    -35.00      0.4914      0.4914
    -34.00      0.4678      0.4678
    -33.00      0.4424      0.4424
    -32.00      0.4138      0.4138
    -31.00      0.3831      0.3831
    -30.00      0.3512      0.3512
    -29.00      0.3177      0.3177
    -28.00      0.2841      0.2841
    -27.00      0.2482      0.2482
    -26.00      0.2121      0.2121
    -25.00      0.1760      0.1760
    -24.00      0.1405      0.1405
    -23.00      0.1259      0.1259
    -22.00      0.1119      0.1119
    -21.00      0.0979      0.0979
    -20.00      0.0844      0.0844
    -19.00      0.0747      0.0747
    -18.00      0.0655      0.0655
    -17.00      0.0574      0.0574
    -16.00      0.0493      0.0493
    -15.00      0.0420      0.0420
    -14.00      0.0348      0.0348
    -13.00      0.0283      0.0283
    -12.00      0.0221      0.0221
    -11.00      0.0180      0.0180
    -10.00      0.0141      0.0141
     -9.00      0.0124      0.0124
     -8.00      0.0108      0.0108
     -7.00      0.0098      0.0098
     -6.00      0.0088      0.0088
     -5.00      0.0079      0.0079
     -4.00      0.0071      0.0071
     -3.00      0.0069      0.0069
     -2.00      0.0067      0.0067
     -1.00      0.0067      0.0067
      0.00      0.0067      0.0067
      1.00      0.0068      0.0068
      2.00      0.0070      0.0070
      3.00      0.0073      0.0073
      4.00      0.0076      0.0076
      5.00      0.0080      0.0080
      6.00      0.0088      0.0088
      7.00      0.0097      0.0097
      8.00      0.0110      0.0110
      9.00      0.0123      0.0123
     10.00      0.0137      0.0137
     11.00      0.0153      0.0153
     12.00      0.0172      0.0172
     13.00      0.0197      0.0197
     14.00      0.0240      0.0240
     15.00      0.0311      0.0311
     16.00      0.0428      0.0428
     17.00      0.0597      0.0597
     18.00      0.0767      0.0767
     19.00      0.0941      0.0941
     20.00      0.1116      0.1116
     21.00      0.1297      0.1297
     22.00      0.1480      0.1480
     23.00      0.1661      0.1661
     24.00      0.1844      0.1844
     25.00      0.2073      0.2073
     26.00      0.2303      0.2303
     27.00      0.2534      0.2534
     28.00      0.2776      0.2776
     29.00      0.3118      0.3118
     30.00      0.3472      0.3472
     31.00      0.3808      0.3808
     32.00      0.4130      0.4130
     33.00      0.4424      0.4424
     34.00      0.4680      0.4680
     35.00      0.4915      0.4915
     36.00      0.5154      0.5154
     37.00      0.5405      0.5405
     38.00      0.5660      0.5660
     39.00      0.5917      0.5917
     40.00      0.6174      0.6174
     41.00      0.6433      0.6433
     42.00      0.6693      0.6693
     43.00      0.6953      0.6953
     44.00      0.7215      0.7215
     45.00      0.7477      0.7477
     46.00      0.7739      0.7739
     47.00      0.8001      0.8001
     48.00      0.8263      0.8263
     49.00      0.8522      0.8522
     50.00      0.8780      0.8780
     51.00      0.9037      0.9037
     52.00      0.9291      0.9291
     53.00      0.9544      0.9544
     54.00      0.9795      0.9795
     55.00      1.0044      1.0044
     56.00      1.0291      1.0291
     57.00      1.0533      1.0533
     58.00      1.0769      1.0769
     59.00      1.1001      1.1001
     60.00      1.1228      1.1228
     61.00      1.1451      1.1451
     62.00      1.1670      1.1670
     63.00      1.1883      1.1883
     64.00      1.2093      1.2093
     65.00      1.2298      1.2298
     66.00      1.2497      1.2497
     67.00      1.2691      1.2691
     68.00      1.2880      1.2880
     69.00      1.3059      1.3059
     70.00      1.3228      1.3228
     71.00      1.3390      1.3390
     72.00      1.3544      1.3544
     73.00      1.3693      1.3693
     74.00      1.3836      1.3836
     75.00      1.3971      1.3971
     76.00      1.4102      1.4102
     77.00      1.4226      1.4226
     78.00      1.4339      1.4339
     79.00      1.4441      1.4441
     80.00      1.4535      1.4535
     81.00      1.4618      1.4618
     82.00      1.4691      1.4691
     83.00      1.4757      1.4757
     84.00      1.4814      1.4814
     85.00      1.4864      1.4864
     86.00      1.4908      1.4908
     87.00      1.4942      1.4942
     88.00      1.4969      1.4969
     89.00      1.4991      1.4991
     90.00      1.5000      1.5000
     91.00      1.4991      1.4991
     92.00      1.4969      1.4969
     93.00      1.4942      1.4942
     94.00      1.4908      1.4908
     95.00      1.4864      1.4864
     96.00      1.4814      1.4814
     97.00      1.4757      1.4757
     98.00      1.4691      1.4691
     99.00      1.4618      1.4618
    100.00      1.4535      1.4535
    101.00      1.4441      1.4441
    102.00      1.4339      1.4339
    103.00      1.4226      1.4226
    104.00      1.4102      1.4102
    105.00      1.3971      1.3971
    106.00      1.3836      1.3836
    107.00      1.3693      1.3693
    108.00      1.3544      1.3544
    109.00      1.3390      1.3390
    110.00      1.3228      1.3228
    111.00      1.3059      1.3059
    112.00      1.2880      1.2880
    113.00      1.2691      1.2691
    114.00      1.2497      1.2497
    115.00      1.2298      1.2298
    116.00      1.2093      1.2093
    117.00      1.1883      1.1883
    118.00      1.1670      1.1670
    119.00      1.1451      1.1451
    120.00      1.1228      1.1228
    121.00      1.1001      1.1001
    122.00      1.0769      1.0769
    123.00      1.0533      1.0533
    124.00      1.0291      1.0291
    125.00      1.0044      1.0044
    126.00      0.9795      0.9795
    127.00      0.9544      0.9544
    128.00      0.9291      0.9291
    129.00      0.9037      0.9037
    130.00      0.8780      0.8780
    131.00      0.8522      0.8522
    132.00      0.8263      0.8263
    133.00      0.8001      0.8001
    134.00      0.7739      0.7739
    135.00      0.7477      0.7477
    136.00      0.7215      0.7215
    137.00      0.6953      0.6953
    138.00      0.6693      0.6693
    139.00      0.6433      0.6433
    140.00      0.6174      0.6174
    141.00      0.5917      0.5917
    142.00      0.5660      0.5660
    143.00      0.5405      0.5405
    144.00      0.5154      0.5154
    145.00      0.4907      0.4907
    146.00      0.4664      0.4664
    147.00      0.4424      0.4424
    148.00      0.4185      0.4185
    149.00      0.3949      0.3949
    150.00      0.3718      0.3718
    151.00      0.3493      0.3493
    152.00      0.3273      0.3273
    153.00      0.3059      0.3059
    154.00      0.2850      0.2850
    155.00      0.2647      0.2647
    156.00      0.2449      0.2449
    157.00      0.2257      0.2257
    158.00      0.2070      0.2070
    159.00      0.1891      0.1891
    160.00      0.1719      0.1719
    161.00      0.1553      0.1553
    162.00      0.1395      0.1395
    163.00      0.1246      0.1246
    164.00      0.1104      0.1104
    165.00      0.0970      0.0970
    166.00      0.0842      0.0842
    167.00      0.0721      0.0721
    168.00      0.0612      0.0612
    169.00      0.0506      0.0506
    170.00      0.0408      0.0408
    171.00      0.0348      0.0348
    172.00      0.0322      0.0322
    173.00      0.0305      0.0305
    174.00      0.0290      0.0290
    175.00      0.0276      0.0276
    176.00      0.0263      0.0263
    177.00      0.0254      0.0254
    178.00      0.0248      0.0248
    179.00      0.0243      0.0243
    180.00      0.0241      0.0241
                0.0000      1.0000
   -180.00      0.0000      0.0000
   -179.00      0.0400      0.0400
   -178.00      0.0800      0.0800
   -177.00      0.1200      0.1200
   -176.00      0.1600      0.1600
   -175.00      0.2000      0.2000
   -174.00      0.2400      0.2400
   -173.00      0.2854      0.2854
   -172.00      0.3309      0.3309
   -171.00      0.3600      0.3600
   -170.00      0.3744      0.3744
   -169.00      0.3848      0.3848
   -168.00      0.3888      0.3888
   -167.00      0.3857      0.3857
   -166.00      0.3789      0.3789
   -165.00      0.3721      0.3721
   -164.00      0.3657      0.3657
   -163.00      0.3594      0.3594
   -162.00      0.3554      0.3554
   -161.00      0.3535      0.3535
   -160.00      0.3522      0.3522
   -159.00      0.3517      0.3517
   -158.00      0.3558      0.3558
   -157.00      0.3649      0.3649
   -156.00      0.3740      0.3740
   -155.00      0.3816      0.3816
   -154.00      0.3891      0.3891
   -153.00      0.3964      0.3964
   -152.00      0.4045      0.4045
   -151.00      0.4124      0.4124
   -150.00      0.4171      0.4171
   -149.00      0.4190      0.4190
   -148.00      0.4202      0.4202
   -147.00      0.4212      0.4212
   -146.00      0.4220      0.4220
   -145.00      0.4228      0.4228
   -144.00      0.4235      0.4235
   -143.00      0.4243      0.4243
   -142.00      0.4251      0.4251
   -141.00      0.4260      0.4260
   -140.00      0.4270      0.4270
   -139.00      0.4280      0.4280
   -138.00      0.4292      0.4292
   -137.00      0.4304      0.4304
   -136.00      0.4317      0.4317
   -135.00      0.4330      0.4330
   -134.00      0.4342      0.4342
   -133.00      0.4355      0.4355
   -132.00      0.4368      0.4368
   -131.00      0.4383      0.4383
   -130.00      0.4399      0.4399
   -129.00      0.4416      0.4416
   -128.00      0.4433      0.4433
   -127.00      0.4451      0.4451
   -126.00      0.4469      0.4469
   -125.00      0.4488      0.4488
   -124.00      0.4507      0.4507
   -123.00      0.4525      0.4525
   -122.00      0.4543      0.4543
   -121.00      0.4561      0.4561
   -120.00      0.4578      0.4578
   -119.00      0.4593      0.4593
   -118.00      0.4608      0.4608
   -117.00      0.4622      0.4622
   -116.00      0.4635      0.4635
   -115.00      0.4648      0.4648
   -114.00      0.4662      0.4662
   -113.00      0.4676      0.4676
   -112.00      0.4691      0.4691
   -111.00      0.4701      0.4701
   -110.00      0.4706      0.4706
   -109.00      0.4709      0.4709
   -108.00      0.4711      0.4711
   -107.00      0.4713      0.4713
   -106.00      0.4714      0.4714
   -105.00      0.4715      0.4715
   -104.00      0.4714      0.4714
   -103.00      0.4713      0.4713
   -102.00      0.4712      0.4712
   -101.00      0.4708      0.4708
   -100.00      0.4701      0.4701
    -99.00      0.4692      0.4692
    -98.00      0.4680      0.4680
    -97.00      0.4665      0.4665
    -96.00      0.4650      0.4650
    -95.00      0.4634      0.4634
    -94.00      0.4617      0.4617
    -93.00      0.4601      0.4601
    -92.00      0.4586      0.4586
    -91.00      0.4571      0.4571
    -90.00      0.4552      0.4552
    -89.00      0.4523      0.4523
    -88.00      0.4485      0.4485
    -87.00      0.4447      0.4447
    -86.00      0.4412      0.4412
    -85.00      0.4377      0.4377
    -84.00      0.4341      0.4341
    -83.00      0.4305      0.4305
    -82.00      0.4269      0.4269
    -81.00      0.4230      0.4230
    -80.00      0.4190      0.4190
    -79.00      0.4147      0.4147
    -78.00      0.4103      0.4103
    -77.00      0.4057      0.4057
    -76.00      0.4009      0.4009
    -75.00      0.3962      0.3962