IEA-15-240-RWT_AeroDyn15_Polar_17; 2 361 2 361 2 361
                0.0000      1.0000
   -180.00      0.0000      0.0000
   -179.00      0.0302      0.0302
   -178.00      0.0603      0.0603
   -177.00      0.0905      0.0905
   -176.00      0.1207      0.1207
   -175.00      0.1508      0.1508
   -174.00      0.1810      0.1810
   -173.00      0.2112      0.2112
   -172.00      0.2413      0.2413
   -171.00      0.2715      0.2715
   -170.00      0.3017      0.3017
   -169.00      0.3319      0.3319
   -168.00      0.3620      0.3620
   -167.00      0.3922      0.3922
   -166.00      0.4224      0.4224
   -165.00      0.4525      0.4525
   -164.00      0.4827      0.4827
   -163.00      0.5129      0.5129
   -162.00      0.5430      0.5430
   -161.00      0.5732      0.5732
   -160.00      0.6034      0.6034
   -159.00      0.6335      0.6335
   -158.00      0.6637      0.6637
   -157.00      0.6939      0.6939
   -156.00      0.7240      0.7240
   -155.00      0.7542      0.7542
   -154.00      0.7844      0.7844
   -153.00      0.8145      0.8145
   -152.00      0.8472      0.8472
   -151.00      0.8799      0.8799
   -150.00      0.9050      0.9050
   -149.00      0.9242      0.9242
   -148.00      0.9399      0.9399
   -147.00      0.9464      0.9464
   -146.00      0.9355      0.9355
   -145.00      0.9120      0.9120
   -144.00      0.8893      0.8893
   -143.00      0.8720      0.8720
   -142.00      0.8553      0.8553
   -141.00      0.8389      0.8389
   -140.00      0.8227      0.8227
   -139.00      0.8067      0.8067
   -138.00      0.7909      0.7909
   -137.00      0.7752      0.7752
   -136.00      0.7598      0.7598
   -135.00      0.7444      0.7444
   -134.00      0.7292      0.7292
   -133.00      0.7141      0.7141
   -132.00      0.6990      0.6990
   -131.00      0.6838      0.6838
   -130.00      0.6686      0.6686
   -129.00      0.6534      0.6534
   -128.00      0.6380      0.6380
   -127.00      0.6227      0.6227
   -126.00      0.6072      0.6072
   -125.00      0.5917      0.5917
   -124.00      0.5761      0.5761
   -123.00      0.5603      0.5603
   -122.00      0.5443      0.5443
   -121.00      0.5282      0.5282
   -120.00      0.5119      0.5119
   -119.00      0.4955      0.4955
   -118.00      0.4791      0.4791
   -117.00      0.4625      0.4625
   -116.00      0.4458      0.4458
   -115.00      0.4290      0.4290
   -114.00      0.4121      0.4121
   -113.00      0.3950      0.3950
   -112.00      0.3779      0.3779
   -111.00      0.3607      0.3607
   -110.00      0.3433      0.3433
   -109.00      0.3259      0.3259
   -108.00      0.3084      0.3084
   -107.00      0.2909      0.2909
   -106.00      0.2734      0.2734
   -105.00      0.2559      0.2559
   -104.00      0.2383      0.2383
   -103.00      0.2207      0.2207
   -102.00      0.2032      0.2032
   -101.00      0.1857      0.1857
   -100.00      0.1682      0.1682
    -99.00      0.1508      0.1508
    -98.00      0.1336      0.1336
    -97.00      0.1164      0.1164
    -96.00      0.0994      0.0994
    -95.00      0.0825      0.0825
    -94.00      0.0657      0.0657
    -93.00      0.0490      0.0490
    -92.00      0.0326      0.0326
    -91.00      0.0163      0.0163
    -90.00     -0.0000     -0.0000
    -89.00     -0.0163     -0.0163
    -88.00     -0.0326     -0.0326
    -87.00     -0.0490     -0.0490
    -86.00     -0.0657     -0.0657
    -85.00     -0.0825     -0.0825
    -84.00     -0.0994     -0.0994
    -83.00     -0.1164     -0.1164
    -82.00     -0.1336     -0.1336
    -81.00     -0.1508     -0.1508
    -80.00     -0.1682     -0.1682
    -79.00     -0.1857     -0.1857
    -78.00     -0.2032     -0.2032
    -77.00     -0.2207     -0.2207
    -76.00     -0.2383     -0.2383
    -75.00     -0.2559     -0.2559
    -74.00     -0.2734     -0.2734
    -73.00     -0.2909     -0.2909
    -72.00     -0.3084     -0.3084
    -71.00     -0.3259     -0.3259
    -70.00     -0.3433     -0.3433
    -69.00     -0.3607     -0.3607
    -68.00     -0.3779     -0.3779
    -67.00     -0.3950     -0.3950
    -66.00     -0.4121     -0.4121
    -65.00     -0.4290     -0.4290
    -64.00     -0.4458     -0.4458
    -63.00     -0.4625     -0.4625
    -62.00     -0.4791     -0.4791
    -61.00     -0.4955     -0.4955
    -60.00     -0.5119     -0.5119
    -59.00     -0.5282     -0.5282
    -58.00     -0.5443     -0.5443
    -57.00     -0.5603     -0.5603
    -56.00     -0.5761     -0.5761
    -55.00     -0.5917     -0.5917
    -54.00     -0.6072     -0.6072
    -53.00     -0.6227     -0.6227
    -52.00     -0.6380     -0.6380
    -51.00     -0.6534     -0.6534
    -50.00     -0.6686     -0.6686
    -49.00     -0.6838     -0.6838
    -48.00     -0.6990     -0.6990
    -47.00     -0.7131     -0.7131
    -46.00     -0.7273     -0.7273
    -45.00     -0.7444     -0.7444
    -44.00     -0.7687     -0.7687
    -43.00     -0.7984     -0.7984
    -42.00     -0.8275     -0.8275
    -41.00     -0.8539     -0.8539
    -40.00     -0.8797     -0.8797
    -39.00     -0.9050     -0.9050
    -38.00     -0.9295     -0.9295
    -37.00     -0.9535     -0.9535
    -36.00     -0.9774     -0.9774
    -35.00     -1.0000     -1.0000
    -34.00     -1.0224     -1.0224
    -33.00     -1.0491     -1.0491
    -32.00     -1.0846     -1.0846
    -31.00     -1.1272     -1.1272
    -30.00     -1.1721     -1.1721
    -29.00     -1.2185     -1.2185
    -28.00     -1.2590     -1.2590
    -27.00     -1.2609     -1.2609
    -26.00     -1.2570     -1.2570
    -25.00     -1.2521     -1.2521
    -24.00     -1.2419     -1.2419
    -23.00     -1.2233     -1.2233
    -22.00     -1.2041     -1.2041
    -21.00     -1.1865     -1.1865
    -20.00     -1.1702     -1.1702
    -19.00     -1.1505     -1.1505
    -18.00     -1.1298     -1.1298
    -17.00     -1.1087     -1.1087
    -16.00     -1.0876     -1.0876
    -15.00     -1.0704     -1.0704
    -14.00     -1.0538     -1.0538
    -13.00     -1.0399     -1.0399
    -12.00     -1.0218     -1.0218
    -11.00     -0.9679     -0.9679
    -10.00     -0.9085     -0.9085
     -9.00     -0.7958     -0.7958
     -8.00     -0.6822     -0.6822
     -7.00     -0.5609     -0.5609
     -6.00     -0.4369     -0.4369
     -5.00     -0.3009     -0.3009
     -4.00     -0.1629     -0.1629
     -3.00     -0.0173     -0.0173
     -2.00      0.1285      0.1285
     -1.00      0.2732      0.2732
      0.00      0.4159      0.4159
      1.00      0.5567      0.5567
      2.00      0.6952      0.6952
      3.00      0.8315      0.8315
      4.00      0.9660      0.9660
      5.00      1.0980      1.0980
      6.00      1.2277      1.2277
      7.00      1.3550      1.3550
      8.00      1.4781      1.4781
      9.00      1.5967      1.5967
     10.00      1.7097      1.7097
     11.00      1.8137      1.8137
     12.00      1.9033      1.9033
     13.00      1.9724      1.9724
     14.00      2.0067      2.0067
     15.00      2.0242      2.0242
     16.00      2.0332      2.0332
     17.00      2.0249      2.0249
     18.00      2.0134      2.0134
     19.00      1.9501      1.9501
     20.00      1.8857      1.8857
     21.00      1.8315      1.8315
     22.00      1.7787      1.7787
     23.00      1.7260      1.7260
     24.00      1.6748      1.6748
     25.00      1.6572      1.6572
     26.00      1.6356      1.6356
     27.00      1.6124      1.6124
     28.00      1.5888      1.5888
     29.00      1.5688      1.5688
     30.00      1.5462      1.5462
     31.00      1.5215      1.5215
     32.00      1.4956      1.4956
     33.00      1.4677      1.4677
     34.00      1.4363      1.4363
     35.00      1.4025      1.4025
     36.00      1.3688      1.3688
     37.00      1.3366      1.3366
     38.00      1.3045      1.3045
     39.00      1.2717      1.2717
     40.00      1.2374      1.2374
     41.00      1.2023      1.2023
     42.00      1.1673      1.1673
     43.00      1.1309      1.1309
     44.00      1.0945      1.0945
     45.00      1.0634      1.0634
     46.00      1.0396      1.0396
     47.00      1.0191      1.0191
     48.00      0.9985      0.9985
     49.00      0.9768      0.9768
     50.00      0.9552      0.9552
     51.00      0.9334      0.9334
     52.00      0.9115      0.9115
     53.00      0.8895      0.8895
     54.00      0.8674      0.8674
     55.00      0.8453      0.8453
     56.00      0.8230      0.8230
     57.00      0.8004      0.8004
     58.00      0.7776      0.7776
     59.00      0.7545      0.7545
     60.00      0.7313      0.7313
     61.00      0.7079      0.7079
     62.00      0.6844      0.6844
     63.00      0.6607      0.6607
     64.00      0.6368      0.6368
     65.00      0.6128      0.6128
     66.00      0.5887      0.5887
     67.00      0.5643      0.5643
     68.00      0.5399      0.5399
     69.00      0.5152      0.5152
     70.00      0.4905      0.4905
     71.00      0.4655      0.4655
     72.00      0.4406      0.4406
     73.00      0.4156      0.4156
     74.00      0.3906      0.3906
     75.00      0.3655      0.3655
     76.00      0.3404      0.3404
     77.00      0.3153      0.3153
     78.00      0.2903      0.2903
     79.00      0.2652      0.2652
     80.00      0.2403      0.2403
     81.00      0.2155      0.2155
     82.00      0.1908      0.1908
     83.00      0.1663      0.1663
     84.00      0.1420      0.1420
     85.00      0.1178      0.1178
     86.00      0.0938      0.0938
     87.00      0.0700      0.0700
     88.00      0.0456      0.0456
     89.00      0.0214      0.0214
     90.00      0.0000      0.0000
     91.00     -0.0176     -0.0176
     92.00     -0.0332     -0.0332
     93.00     -0.0490     -0.0490
     94.00     -0.0657     -0.0657
     95.00     -0.0825     -0.0825
     96.00     -0.0994     -0.0994
     97.00     -0.1164     -0.1164
     98.00     -0.1336     -0.1336
     99.00     -0.1508     -0.1508
    100.00     -0.1682     -0.1682
    101.00     -0.1857     -0.1857
    102.00     -0.2032     -0.2032
    103.00     -0.2207     -0.2207
    104.00     -0.2383     -0.2383
    105.00     -0.2559     -0.2559
    106.00     -0.2734     -0.2734
    107.00     -0.2909     -0.2909
    108.00     -0.3084     -0.3084
    109.00     -0.3259     -0.3259
    110.00     -0.3433     -0.3433
    111.00     -0.3607     -0.3607
    112.00     -0.3779     -0.3779
    113.00     -0.3950     -0.3950
    114.00     -0.4121     -0.4121
    115.00     -0.4290     -0.4290
    116.00     -0.4458     -0.4458
    117.00     -0.4625     -0.4625
    118.00     -0.4791     -0.4791
    119.00     -0.4955     -0.4955
    120.00     -0.5119     -0.5119
    121.00     -0.5282     -0.5282
    122.00     -0.5443     -0.5443
    123.00     -0.5603     -0.5603
    124.00     -0.5761     -0.5761
    125.00     -0.5917     -0.5917
    126.00     -0.6072     -0.6072
    127.00     -0.6227     -0.6227
    128.00     -0.6380     -0.6380
    129.00     -0.6534     -0.6534
    130.00     -0.6686     -0.6686
    131.00     -0.6838     -0.6838
    132.00     -0.6990     -0.6990
    133.00     -0.7141     -0.7141
    134.00     -0.7292     -0.7292
    135.00     -0.7444     -0.7444
    136.00     -0.7598     -0.7598
    137.00     -0.7752     -0.7752
    138.00     -0.7909     -0.7909
    139.00     -0.8067     -0.8067
    140.00     -0.8227     -0.8227
    141.00     -0.8389     -0.8389
    142.00     -0.8553     -0.8553
    143.00     -0.8720     -0.8720
    144.00     -0.8893     -0.8893
    145.00     -0.9120     -0.9120
    146.00     -0.9355     -0.9355
    147.00     -0.9464     -0.9464
    148.00     -0.9399     -0.9399
    149.00     -0.9242     -0.9242
    150.00     -0.9050     -0.9050
    151.00     -0.8799     -0.8799
    152.00     -0.8472     -0.8472
    153.00     -0.8145     -0.8145
    154.00     -0.7844     -0.7844
    155.00     -0.7542     -0.7542
    156.00     -0.7240     -0.7240
    157.00     -0.6939     -0.6939
    158.00     -0.6637     -0.6637
    159.00     -0.6335     -0.6335
    160.00     -0.6034     -0.6034
    161.00     -0.5732     -0.5732
    162.00     -0.5430     -0.5430
    163.00     -0.5129     -0.5129
    164.00     -0.4827     -0.4827
    165.00     -0.4525     -0.4525
    166.00     -0.4224     -0.4224
    167.00     -0.3922     -0.3922
    168.00     -0.3620     -0.3620
    169.00     -0.3318     -0.3318
    170.00     -0.3017     -0.3017
    171.00     -0.2715     -0.2715
    172.00     -0.2413     -0.2413
    173.00     -0.2112     -0.2112
    174.00     -0.1810     -0.1810
    175.00     -0.1508     -0.1508
    176.00     -0.1207     -0.1207
    177.00     -0.0905     -0.0905
    178.00     -0.0603     -0.0603
    179.00     -0.0302     -0.0302
    180.00      0.0000      0.0000
                0.0000      1.0000
   -180.00      0.0305      0.0305
   -179.00      0.0307      0.0307
   -178.00      0.0312      0.0312
   -177.00      0.0317      0.0317
   -176.00      0.0325      0.0325
   -175.00      0.0335      0.0335
   -174.00      0.0348      0.0348
   -173.00      0.0362      0.0362
   -172.00      0.0378      0.0378
   -171.00      0.0397      0.0397
   -170.00      0.0420      0.0420
   -169.00      0.0447      0.0447
   -168.00      0.0483      0.0483
   -167.00      0.0541      0.0541
   -166.00      0.0625      0.0625
   -165.00      0.0720      0.0720
   -164.00      0.0829      0.0829
   -163.00      0.0957      0.0957
   -162.00      0.1090      0.1090
   -161.00      0.1227      0.1227
   -160.00      0.1371      0.1371
   -159.00      0.1521      0.1521
   -158.00      0.1677      0.1677
   -157.00      0.1840      0.1840
   -156.00      0.2007      0.2007
   -155.00      0.2179      0.2179
   -154.00      0.2356      0.2356
   -153.00      0.2538      0.2538
   -152.00      0.2724      0.2724
   -151.00      0.2915      0.2915
   -150.00      0.3111      0.3111
   -149.00      0.3312      0.3312
   -148.00      0.3518      0.3518
   -147.00      0.3726      0.3726
   -146.00      0.3935      0.3935
   -145.00      0.4147      0.4147
   -144.00      0.4362      0.4362
   -143.00      0.4581      0.4581
   -142.00      0.4803      0.4803
   -141.00      0.5026      0.5026
   -140.00      0.5251      0.5251
   -139.00      0.5476      0.5476
   -138.00      0.5702      0.5702
   -137.00      0.5929      0.5929
   -136.00      0.6157      0.6157
   -135.00      0.6386      0.6386
   -134.00      0.6614      0.6614
   -133.00      0.6843      0.6843
   -132.00      0.7071      0.7071
   -131.00      0.7297      0.7297
   -130.00      0.7523      0.7523
   -129.00      0.7747      0.7747
   -128.00      0.7969      0.7969
   -127.00      0.8190      0.8190
   -126.00      0.8409      0.8409
   -125.00      0.8627      0.8627
   -124.00      0.8843      0.8843
   -123.00      0.9055      0.9055
   -122.00      0.9262      0.9262
   -121.00      0.9464      0.9464
   -120.00      0.9663      0.9663
   -119.00      0.9859      0.9859
   -118.00      1.0050      1.0050
   -117.00      1.0237      1.0237
   -116.00      1.0421      1.0421
   -115.00      1.0601      1.0601
   -114.00      1.0776      1.0776
   -113.00      1.0946      1.0946
   -112.00      1.1112      1.1112
   -111.00      1.1269      1.1269
   -110.00      1.1418      1.1418
   -109.00      1.1560      1.1560
   -108.00      1.1696      1.1696
   -107.00      1.1828      1.1828
   -106.00      1.1954      1.1954
   -105.00      1.2073      1.2073
   -104.00      1.2189      1.2189
   -103.00      1.2298      1.2298
   -102.00      1.2399      1.2399
   -101.00      1.2490      1.2490
   -100.00      1.2573      1.2573
    -99.00      1.2647      1.2647
    -98.00      1.2714      1.2714
    -97.00      1.2773      1.2773
    -96.00      1.2825      1.2825
    -95.00      1.2870      1.2870
    -94.00      1.2911      1.2911
    -93.00      1.2942      1.2942
    -92.00      1.2969      1.2969
    -91.00      1.2991      1.2991
    -90.00      1.3000      1.3000
    -89.00      1.2991      1.2991
    -88.00      1.2969      1.2969
    -87.00      1.2942      1.2942
    -86.00      1.2911      1.2911
    -85.00      1.2870      1.2870
    -84.00      1.2825      1.2825
    -83.00      1.2773      1.2773
    -82.00      1.2714      1.2714
    -81.00      1.2647      1.2647
    -80.00      1.2573      1.2573
    -79.00      1.2490      1.2490
    -78.00      1.2399      1.2399
    -77.00      1.2298      1.2298
    -76.00      1.2189      1.2189
    -75.00      1.2073      1.2073
    -74.00      1.1954      1.1954
    -73.00      1.1828      1.1828
    -72.00      1.1696      1.1696
    -71.00      1.1560      1.1560
    -70.00      1.1418      1.1418
    -69.00      1.1269      1.1269
    -68.00      1.1112      1.1112
    -67.00      1.0946      1.0946
    -66.00      1.0776      1.0776
    -65.00      1.0601      1.0601
    -64.00      1.0421      1.0421
    -63.00      1.0237      1.0237
    -62.00      1.0050      1.0050
    -61.00      0.9859      0.9859
    -60.00      0.9663      0.9663
    -59.00      0.9464      0.9464
    -58.00      0.9262      0.9262
    -57.00      0.9055      0.9055
    -56.00      0.8843      0.8843
    -55.00      0.8627      0.8627
    -54.00      0.8409      0.8409
    -53.00      0.8190      0.8190
    -52.00      0.7969      0.7969
    -51.00      0.7747      0.7747
    -50.00      0.7523      0.7523
    -49.00      0.7297      0.7297
    -48.00      0.7071      0.7071
    -47.00      0.6843      0.6843
    -46.00      0.6614      0.6614
    -45.00      0.6386      0.6386
    -44.00      0.6157      0.6157
    -43.00      0.5929      0.5929
    -42.00      0.5702      0.5702
    -41.00      0.5476      0.5476
    -40.00      0.5251      0.5251
    -39.00      0.5026      0.5026
    -38.00      0.4803      0.4803
    -37.00      0.4581      0.4581
    -36.00      0.4362      0.4362
    -35.00      0.4156      0.4156
    -34.00      0.3954      0.3954
    -33.00      0.3726      0.3726
    -32.00      0.3447      0.3447
    -31.00      0.3129      0.3129
    -30.00      0.2792      0.2792
    -29.00      0.2433      0.2433
    -28.00      0.2097      0.2097
    -27.00      0.1931      0.1931
    -26.00      0.1789      0.1789
    -25.00      0.1646      0.1646
    -24.00      0.1505      0.1505
    -23.00      0.1393      0.1393
    -22.00      0.1281      0.1281
    -21.00      0.1169      0.1169
    -20.00      0.1056      0.1056
    -19.00      0.0958      0.0958
    -18.00      0.0863      0.0863
    -17.00      0.0777      0.0777
    -16.00      0.0692      0.0692
    -15.00      0.0612      0.0612
    -14.00      0.0534      0.0534
    -13.00      0.0462      0.0462
    -12.00      0.0393      0.0393
    -11.00      0.0337      0.0337
    -10.00      0.0283      0.0283
     -9.00      0.0248      0.0248
     -8.00      0.0215      0.0215
     -7.00      0.0191      0.0191
     -6.00      0.0169      0.0169
     -5.00      0.0156      0.0156
     -4.00      0.0144      0.0144
     -3.00      0.0138      0.0138
     -2.00      0.0133      0.0133
     -1.00      0.0131      0.0131
      0.00      0.0130      0.0130
      1.00      0.0130      0.0130
      2.00      0.0132      0.0132
      3.00      0.0134      0.0134
      4.00      0.0137      0.0137
      5.00      0.0140      0.0140
      6.00      0.0145      0.0145
      7.00      0.0151      0.0151
      8.00      0.0158      0.0158
      9.00      0.0168      0.0168
     10.00      0.0179      0.0179
     11.00      0.0196      0.0196
     12.00      0.0219      0.0219
     13.00      0.0256      0.0256
     14.00      0.0322      0.0322
     15.00      0.0409      0.0409
     16.00      0.0509      0.0509
     17.00      0.0627      0.0627
     18.00      0.0749      0.0749
     19.00      0.0922      0.0922
     20.00      0.1102      0.1102
     21.00      0.1302      0.1302
     22.00      0.1506      0.1506
     23.00      0.1710      0.1710
     24.00      0.1911      0.1911
     25.00      0.2113      0.2113
     26.00      0.2316      0.2316
     27.00      0.2519      0.2519
     28.00      0.2721      0.2721
     29.00      0.2919      0.2919
     30.00      0.3117      0.3117
     31.00      0.3318      0.3318
     32.00      0.3520      0.3520
     33.00      0.3726      0.3726
     34.00      0.3934      0.3934
     35.00      0.4146      0.4146
     36.00      0.4362      0.4362
     37.00      0.4581      0.4581
     38.00      0.4803      0.4803
     39.00      0.5026      0.5026
     40.00      0.5251      0.5251
     41.00      0.5476      0.5476
     42.00      0.5702      0.5702
     43.00      0.5929      0.5929
     44.00      0.6157      0.6157
     45.00      0.6386      0.6386
     46.00      0.6614      0.6614
     47.00      0.6843      0.6843
     48.00      0.7071      0.7071
     49.00      0.7297      0.7297
     50.00      0.7523      0.7523
     51.00      0.7747      0.7747
     52.00      0.7969      0.7969
     53.00      0.8190      0.8190
     54.00      0.8409      0.8409
     55.00      0.8627      0.8627
     56.00      0.8843      0.8843
     57.00      0.9055      0.9055
     58.00      0.9262      0.9262
     59.00      0.9464      0.9464
     60.00      0.9663      0.9663
     61.00      0.9859      0.9859
     62.00      1.0050      1.0050
     63.00      1.0237      1.0237
     64.00      1.0421      1.0421
     65.00      1.0601      1.0601
     66.00      1.0776      1.0776
     67.00      1.0946      1.0946
     68.00      1.1112      1.1112
     69.00      1.1269      1.1269
     70.00      1.1418      1.1418
     71.00      1.1560      1.1560
     72.00      1.1696      1.1696
     73.00      1.1828      1.1828
     74.00      1.1954      1.1954
     75.00      1.2073      1.2073
     76.00      1.2189      1.2189
     77.00      1.2298      1.2298
     78.00      1.2399      1.2399
     79.00      1.2490      1.2490
     80.00      1.2573      1.2573
     81.00      1.2647      1.2647
     82.00      1.2714      1.2714
     83.00      1.2773      1.2773
     84.00      1.2825      1.2825
     85.00      1.2870      1.2870
     86.00      1.2911      1.2911
     87.00      1.2942      1.2942
     88.00      1.2969      1.2969
     89.00      1.2991      1.2991
     90.00      1.3000      1.3000
     91.00      1.2991      1.2991
     92.00      1.2969      1.2969
     93.00      1.2942      1.2942
     94.00      1.2911      1.2911
     95.00      1.2870      1.2870
     96.00      1.2825      1.2825
     97.00      1.2773      1.2773
     98.00      1.2714      1.2714
     99.00      1.2647      1.2647
    100.00      1.2573      1.2573
    101.00      1.2490      1.2490
    102.00      1.2399      1.2399
    103.00      1.2298      1.2298
    104.00      1.2189      1.2189
    105.00      1.2073      1.2073
    106.00      1.1954      1.1954
    107.00      1.1828      1.1828
    108.00      1.1696      1.1696
    109.00      1.1560      1.1560
    110.00      1.1418      1.1418
    111.00      1.1269      1.1269
    112.00      1.1112      1.1112
    113.00      1.0946      1.0946
    114.00      1.0776      1.0776
    115.00      1.0601      1.0601
    116.00      1.0421      1.0421
    117.00      1.0237      1.0237
    118.00      1.0050      1.0050
    119.00      0.9859      0.9859
    120.00      0.9663      0.9663
    121.00      0.9464      0.9464
    122.00      0.9262      0.9262
    123.00      0.9055      0.9055
    124.00      0.8843      0.8843
    125.00      0.8627      0.8627
    126.00      0.8409      0.8409
    127.00      0.8190      0.8190
    128.00      0.7969      0.7969
    129.00      0.7747      0.7747
    130.00      0.7523      0.7523
    131.00      0.7297      0.7297
    132.00      0.7071      0.7071
    133.00      0.6843      0.6843
    134.00      0.6614      0.6614
    135.00      0.6386      0.6386
    136.00      0.6157      0.6157
    137.00      0.5929      0.5929
    138.00      0.5702      0.5702
    139.00      0.5476      0.5476
    140.00      0.5251      0.5251
    141.00      0.5026      0.5026
    142.00      0.4803      0.4803
    143.00      0.4581      0.4581
    144.00      0.4362      0.4362
    145.00      0.4147      0.4147
    146.00      0.3935      0.3935
    147.00      0.3726      0.3726
    148.00      0.3518      0.3518
    149.00      0.3312      0.3312
    150.00      0.3111      0.3111
    151.00      0.2915      0.2915
    152.00      0.2724      0.2724
    153.00      0.2538      0.2538
    154.00      0.2356      0.2356
    155.00      0.2179      0.2179
    156.00      0.2007      0.2007
    157.00      0.1840      0.1840
    158.00      0.1677      0.1677
    159.00      0.1521      0.1521
    160.00      0.1371      0.1371
    161.00      0.1227      0.1227
    162.00      0.1090      0.1090
    163.00      0.0957      0.0957
    164.00      0.0829      0.0829
    165.00      0.0720      0.0720
    166.00      0.0625      0.0625
    167.00      0.0541      0.0541
    168.00      0.0483      0.0483
    169.00      0.0447      0.0447
    170.00      0.0420      0.0420
    171.00      0.0397      0.0397
    172.00      0.0378      0.0378
    173.00      0.0362      0.0362
    174.00      0.0348      0.0348
    175.00      0.0335      0.0335
    176.00      0.0325      0.0325
    177.00      0.0317      0.0317
    178.00      0.0312      0.0312
    179.00      0.0307      0.0307
    180.00      0.0305      0.0305
                0.0000      1.0000
   -180.00      0.0000      0.0000
   -179.00      0.0400      0.0400
   -178.00      0.0800      0.0800
   -177.00      0.1200      0.1200
   -176.00      0.1600      0.1600
   -175.00      0.2000      0.2000
   -174.00      0.2400      0.2400
   -173.00      0.2841      0.2841
   -172.00      0.3282      0.3282
   -171.00      0.3600      0.3600
   -170.00      0.3802      0.3802
   -169.00      0.3958      0.3958
   -168.00      0.4041      0.4041
   -167.00      0.4069      0.4069
   -166.00      0.4086      0.4086
   -165.00      0.4103      0.4103
   -164.00      0.4122      0.4122
   -163.00      0.4141      0.4141
   -162.00      0.4164      0.4164
   -161.00      0.4195      0.4195
   -160.00      0.4233      0.4233
   -159.00      0.4280      0.4280
   -158.00      0.4344      0.4344
   -157.00      0.4424      0.4424
   -156.00      0.4504      0.4504
   -155.00      0.4580      0.4580
   -154.00      0.4655      0.4655
   -153.00      0.4728      0.4728
   -152.00      0.4809      0.4809
   -151.00      0.4887      0.4887
   -150.00      0.4922      0.4922
   -149.00      0.4903      0.4903
   -148.00      0.4862      0.4862
   -147.00      0.4817      0.4817
   -146.00      0.4774      0.4774
   -145.00      0.4728      0.4728
   -144.00      0.4682      0.4682
   -143.00      0.4636      0.4636
   -142.00      0.4590      0.4590
   -141.00      0.4549      0.4549
   -140.00      0.4513      0.4513
   -139.00      0.4481      0.4481
   -138.00      0.4452      0.4452
   -137.00      0.4426      0.4426
   -136.00      0.4403      0.4403
   -135.00      0.4380      0.4380
   -134.00      0.4355      0.4355
   -133.00      0.4329      0.4329
   -132.00      0.4309      0.4309
   -131.00      0.4294      0.4294
   -130.00      0.4282      0.4282
   -129.00      0.4273      0.4273
   -128.00      0.4266      0.4266
   -127.00      0.4260      0.4260
   -126.00      0.4257      0.4257
   -125.00      0.4255      0.4255
   -124.00      0.4254      0.4254
   -123.00      0.4254      0.4254
   -122.00      0.4254      0.4254
   -121.00      0.4254      0.4254
   -120.00      0.4255      0.4255
   -119.00      0.4257      0.4257
   -118.00      0.4259      0.4259
   -117.00      0.4263      0.4263
   -116.00      0.4266      0.4266
   -115.00      0.4270      0.4270
   -114.00      0.4274      0.4274
   -113.00      0.4278      0.4278
   -112.00      0.4282      0.4282
   -111.00      0.4284      0.4284
   -110.00      0.4284      0.4284
   -109.00      0.4282      0.4282
   -108.00      0.4281      0.4281
   -107.00      0.4279      0.4279
   -106.00      0.4276      0.4276
   -105.00      0.4274      0.4274
   -104.00      0.4271      0.4271
   -103.00      0.4267      0.4267
   -102.00      0.4263      0.4263
   -101.00      0.4257      0.4257
   -100.00      0.4249      0.4249
    -99.00      0.4239      0.4239
    -98.00      0.4227      0.4227
    -97.00      0.4213      0.4213
    -96.00      0.4199      0.4199
    -95.00      0.4184      0.4184
    -94.00      0.4169      0.4169
    -93.00      0.4154      0.4154
    -92.00      0.4140      0.4140
    -91.00      0.4126      0.4126
    -90.00      0.4108      0.4108
    -89.00      0.4081      0.4081
    -88.00      0.4047      0.4047
    -87.00      0.4013      0.4013
    -86.00      0.3981      0.3981
    -85.00      0.3949      0.3949
    -84.00      0.3917      0.3917
    -83.00      0.3885      0.3885
    -82.00      0.3852      0.3852
    -81.00      0.3818      0.3818
    -80.00      0.3782      0.3782
    -79.00      0.3745      0.3745
    -78.00      0.3706      0.3706
    -77.00      0.3667      0.3667
    -76.00      0.3626      0.3626
    -75.00      0.3585      0.3585