IEA-15-240-RWT_AeroDyn15_Polar_12; 2 361 2 361 2 361
                0.0000      1.0000
   -180.00      0.0000      0.0000
   -179.00      0.0314      0.0314
   -178.00      0.0628      0.0628
   -177.00      0.0942      0.0942
   -176.00      0.1256      0.1256
   -175.00      0.1571      0.1571
   -174.00      0.1885      0.1885
   -173.00      0.2199      0.2199
   -172.00      0.2513      0.2513
   -171.00      0.2827      0.2827
   -170.00      0.3141      0.3141
   -169.00      0.3455      0.3455
   -168.00      0.3769      0.3769
   -167.00      0.4083      0.4083
   -166.00      0.4398      0.4398
   -165.00      0.4712      0.4712
   -164.00      0.5026      0.5026
   -163.00      0.5340      0.5340
   -162.00      0.5654      0.5654
   -161.00      0.5968      0.5968
   -160.00      0.6282      0.6282
   -159.00      0.6596      0.6596
   -158.00      0.6910      0.6910
   -157.00      0.7224      0.7224
   -156.00      0.7538      0.7538
   -155.00      0.7852      0.7852
   -154.00      0.8166      0.8166
   -153.00      0.8480      0.8480
   -152.00      0.8821      0.8821
   -151.00      0.9161      0.9161
   -150.00      0.9422      0.9422
   -149.00      0.9617      0.9617
   -148.00      0.9776      0.9776
   -147.00      0.9842      0.9842
   -146.00      0.9724      0.9724
   -145.00      0.9467      0.9467
   -144.00      0.9219      0.9219
   -143.00      0.9031      0.9031
   -142.00      0.8851      0.8851
   -141.00      0.8673      0.8673
   -140.00      0.8497      0.8497
   -139.00      0.8325      0.8325
   -138.00      0.8154      0.8154
   -137.00      0.7986      0.7986
   -136.00      0.7820      0.7820
   -135.00      0.7656      0.7656
   -134.00      0.7493      0.7493
   -133.00      0.7332      0.7332
   -132.00      0.7171      0.7171
   -131.00      0.7010      0.7010
   -130.00      0.6849      0.6849
   -129.00      0.6688      0.6688
   -128.00      0.6526      0.6526
   -127.00      0.6364      0.6364
   -126.00      0.6201      0.6201
   -125.00      0.6038      0.6038
   -124.00      0.5874      0.5874
   -123.00      0.5710      0.5710
   -122.00      0.5543      0.5543
   -121.00      0.5375      0.5375
   -120.00      0.5206      0.5206
   -119.00      0.5037      0.5037
   -118.00      0.4866      0.4866
   -117.00      0.4695      0.4695
   -116.00      0.4522      0.4522
   -115.00      0.4349      0.4349
   -114.00      0.4175      0.4175
   -113.00      0.4001      0.4001
   -112.00      0.3825      0.3825
   -111.00      0.3648      0.3648
   -110.00      0.3471      0.3471
   -109.00      0.3293      0.3293
   -108.00      0.3115      0.3115
   -107.00      0.2937      0.2937
   -106.00      0.2758      0.2758
   -105.00      0.2580      0.2580
   -104.00      0.2401      0.2401
   -103.00      0.2223      0.2223
   -102.00      0.2045      0.2045
   -101.00      0.1868      0.1868
   -100.00      0.1691      0.1691
    -99.00      0.1516      0.1516
    -98.00      0.1342      0.1342
    -97.00      0.1169      0.1169
    -96.00      0.0997      0.0997
    -95.00      0.0827      0.0827
    -94.00      0.0659      0.0659
    -93.00      0.0491      0.0491
    -92.00      0.0327      0.0327
    -91.00      0.0163      0.0163
    -90.00     -0.0000     -0.0000
    -89.00     -0.0163     -0.0163
    -88.00     -0.0327     -0.0327
    -87.00     -0.0491     -0.0491
    -86.00     -0.0659     -0.0659
    -85.00     -0.0827     -0.0827
    -84.00     -0.0997     -0.0997
    -83.00     -0.1169     -0.1169
    -82.00     -0.1342     -0.1342
    -81.00     -0.1516     -0.1516
    -80.00     -0.1691     -0.1691
    -79.00     -0.1868     -0.1868
    -78.00     -0.2045     -0.2045
    -77.00     -0.2223     -0.2223
    -76.00     -0.2401     -0.2401
    -75.00     -0.2580     -0.2580
    -74.00     -0.2758     -0.2758
    -73.00     -0.2937     -0.2937
    -72.00     -0.3115     -0.3115
    -71.00     -0.3293     -0.3293
    -70.00     -0.3471     -0.3471
    -69.00     -0.3648     -0.3648
    -68.00     -0.3825     -0.3825
    -67.00     -0.4001     -0.4001
    -66.00     -0.4175     -0.4175
    -65.00     -0.4349     -0.4349
    -64.00     -0.4522     -0.4522
    -63.00     -0.4695     -0.4695
    -62.00     -0.4866     -0.4866
    -61.00     -0.5037     -0.5037
    -60.00     -0.5206     -0.5206
    -59.00     -0.5375     -0.5375
    -58.00     -0.5543     -0.5543
    -57.00     -0.5710     -0.5710
    -56.00     -0.5874     -0.5874
    -55.00     -0.6038     -0.6038
    -54.00     -0.6201     -0.6201
    -53.00     -0.6364     -0.6364
    -52.00     -0.6526     -0.6526
    -51.00     -0.6688     -0.6688
    -50.00     -0.6849     -0.6849
    -49.00     -0.7010     -0.7010
    -48.00     -0.7171     -0.7171
    -47.00     -0.7323     -0.7323
    -46.00     -0.7474     -0.7474
    -45.00     -0.7656     -0.7656
    -44.00     -0.7909     -0.7909
    -43.00     -0.8218     -0.8218
    -42.00     -0.8529     -0.8529
    -41.00     -0.8825     -0.8825
    -40.00     -0.9122     -0.9122
    -39.00     -0.9423     -0.9423
    -38.00     -0.9725     -0.9725
    -37.00     -1.0031     -1.0031
    -36.00     -1.0344     -1.0344
    -35.00     -1.0667     -1.0667
    -34.00     -1.0998     -1.0998
    -33.00     -1.1342     -1.1342
    -32.00     -1.1704     -1.1704
    -31.00     -1.2080     -1.2080
    -30.00     -1.2464     -1.2464
    -29.00     -1.2859     -1.2859
    -28.00     -1.3210     -1.3210
    -27.00     -1.3232     -1.3232
    -26.00     -1.3210     -1.3210
    -25.00     -1.3181     -1.3181
    -24.00     -1.3040     -1.3040
    -23.00     -1.2862     -1.2862
    -22.00     -1.2675     -1.2675
    -21.00     -1.2337     -1.2337
    -20.00     -1.1971     -1.1971
    -19.00     -1.1589     -1.1589
    -18.00     -1.1202     -1.1202
    -17.00     -1.0787     -1.0787
    -16.00     -1.0371     -1.0371
    -15.00     -0.9994     -0.9994
    -14.00     -0.9622     -0.9622
    -13.00     -0.9275     -0.9275
    -12.00     -0.8933     -0.8933
    -11.00     -0.8601     -0.8601
    -10.00     -0.8271     -0.8271
     -9.00     -0.7379     -0.7379
     -8.00     -0.6455     -0.6455
     -7.00     -0.5224     -0.5224
     -6.00     -0.3954     -0.3954
     -5.00     -0.2635     -0.2635
     -4.00     -0.1303     -0.1303
     -3.00      0.0156      0.0156
     -2.00      0.1622      0.1622
     -1.00      0.3112      0.3112
      0.00      0.4593      0.4593
      1.00      0.6058      0.6058
      2.00      0.7494      0.7494
      3.00      0.8904      0.8904
      4.00      1.0290      1.0290
      5.00      1.1642      1.1642
      6.00      1.2961      1.2961
      7.00      1.4243      1.4243
      8.00      1.5461      1.5461
      9.00      1.6609      1.6609
     10.00      1.7675      1.7675
     11.00      1.8550      1.8550
     12.00      1.9197      1.9197
     13.00      1.9611      1.9611
     14.00      1.9725      1.9725
     15.00      1.9924      1.9924
     16.00      1.9976      1.9976
     17.00      1.9649      1.9649
     18.00      1.9297      1.9297
     19.00      1.8910      1.8910
     20.00      1.8485      1.8485
     21.00      1.8119      1.8119
     22.00      1.7803      1.7803
     23.00      1.7487      1.7487
     24.00      1.7183      1.7183
     25.00      1.7112      1.7112
     26.00      1.6952      1.6952
     27.00      1.6780      1.6780
     28.00      1.6610      1.6610
     29.00      1.6451      1.6451
     30.00      1.6295      1.6295
     31.00      1.6092      1.6092
     32.00      1.5848      1.5848
     33.00      1.5560      1.5560
     34.00      1.5184      1.5184
     35.00      1.4733      1.4733
     36.00      1.4296      1.4296
     37.00      1.3901      1.3901
     38.00      1.3519      1.3519
     39.00      1.3140      1.3140
     40.00      1.2764      1.2764
     41.00      1.2392      1.2392
     42.00      1.2024      1.2024
     43.00      1.1642      1.1642
     44.00      1.1263      1.1263
     45.00      1.0937      1.0937
     46.00      1.0684      1.0684
     47.00      1.0464      1.0464
     48.00      1.0245      1.0245
     49.00      1.0015      1.0015
     50.00      0.9784      0.9784
     51.00      0.9554      0.9554
     52.00      0.9323      0.9323
     53.00      0.9091      0.9091
     54.00      0.8859      0.8859
     55.00      0.8626      0.8626
     56.00      0.8392      0.8392
     57.00      0.8157      0.8157
     58.00      0.7919      0.7919
     59.00      0.7679      0.7679
     60.00      0.7438      0.7438
     61.00      0.7195      0.7195
     62.00      0.6952      0.6952
     63.00      0.6707      0.6707
     64.00      0.6461      0.6461
     65.00      0.6213      0.6213
     66.00      0.5965      0.5965
     67.00      0.5715      0.5715
     68.00      0.5464      0.5464
     69.00      0.5212      0.5212
     70.00      0.4958      0.4958
     71.00      0.4704      0.4704
     72.00      0.4450      0.4450
     73.00      0.4195      0.4195
     74.00      0.3940      0.3940
     75.00      0.3686      0.3686
     76.00      0.3431      0.3431
     77.00      0.3176      0.3176
     78.00      0.2922      0.2922
     79.00      0.2669      0.2669
     80.00      0.2416      0.2416
     81.00      0.2166      0.2166
     82.00      0.1917      0.1917
     83.00      0.1670      0.1670
     84.00      0.1425      0.1425
     85.00      0.1182      0.1182
     86.00      0.0941      0.0941
     87.00      0.0702      0.0702
     88.00      0.0457      0.0457
     89.00      0.0215      0.0215
     90.00      0.0000      0.0000
     91.00     -0.0176     -0.0176
     92.00     -0.0333     -0.0333
     93.00     -0.0491     -0.0491
     94.00     -0.0659     -0.0659
     95.00     -0.0827     -0.0827
     96.00     -0.0997     -0.0997
     97.00     -0.1169     -0.1169
     98.00     -0.1342     -0.1342
     99.00     -0.1516     -0.1516
    100.00     -0.1691     -0.1691
    101.00     -0.1868     -0.1868
    102.00     -0.2045     -0.2045
    103.00     -0.2223     -0.2223
    104.00     -0.2401     -0.2401
    105.00     -0.2580     -0.2580
    106.00     -0.2758     -0.2758
    107.00     -0.2937     -0.2937
    108.00     -0.3115     -0.3115
    109.00     -0.3293     -0.3293
    110.00     -0.3471     -0.3471
    111.00     -0.3648     -0.3648
    112.00     -0.3825     -0.3825
    113.00     -0.4001     -0.4001
    114.00     -0.4175     -0.4175
    115.00     -0.4349     -0.4349
    116.00     -0.4522     -0.4522
    117.00     -0.4695     -0.4695
    118.00     -0.4866     -0.4866
    119.00     -0.5037     -0.5037
    120.00     -0.5206     -0.5206
    121.00     -0.5375     -0.5375
    122.00     -0.5543     -0.5543
    123.00     -0.5710     -0.5710
    124.00     -0.5874     -0.5874
    125.00     -0.6038     -0.6038
    126.00     -0.6201     -0.6201
    127.00     -0.6364     -0.6364
    128.00     -0.6526     -0.6526
    129.00     -0.6688     -0.6688
    130.00     -0.6849     -0.6849
    131.00     -0.7010     -0.7010
    132.00     -0.7171     -0.7171
    133.00     -0.7332     -0.7332
    134.00     -0.7493     -0.7493
    135.00     -0.7656     -0.7656
    136.00     -0.7820     -0.7820
    137.00     -0.7986     -0.7986
    138.00     -0.8154     -0.8154
    139.00     -0.8325     -0.8325
    140.00     -0.8497     -0.8497
    141.00     -0.8673     -0.8673
    142.00     -0.8851     -0.8851
    143.00     -0.9031     -0.9031
    144.00     -0.9219     -0.9219
    145.00     -0.9467     -0.9467
    146.00     -0.9724     -0.9724
    147.00     -0.9842     -0.9842
    148.00     -0.9776     -0.9776
    149.00     -0.9617     -0.9617
    150.00     -0.9422     -0.9422
    151.00     -0.9161     -0.9161
    152.00     -0.8821     -0.8821
    153.00     -0.8480     -0.8480
    154.00     -0.8166     -0.8166
    155.00     -0.7852     -0.7852
    156.00     -0.7538     -0.7538
    157.00     -0.7224     -0.7224
    158.00     -0.6910     -0.6910
    159.00     -0.6596     -0.6596
    160.00     -0.6282     -0.6282
    161.00     -0.5968     -0.5968
    162.00     -0.5654     -0.5654
    163.00     -0.5340     -0.5340
    164.00     -0.5026     -0.5026
    165.00     -0.4712     -0.4712
    166.00     -0.4398     -0.4398
    167.00     -0.4083     -0.4083
    168.00     -0.3769     -0.3769
    169.00     -0.3455     -0.3455
    170.00     -0.3141     -0.3141
    171.00     -0.2827     -0.2827
    172.00     -0.2513     -0.2513
    173.00     -0.2199     -0.2199
    174.00     -0.1885     -0.1885
    175.00     -0.1571     -0.1571
    176.00     -0.1256     -0.1256
    177.00     -0.0942     -0.0942
    178.00     -0.0628     -0.0628
    179.00     -0.0314     -0.0314
    180.00      0.0000      0.0000
                0.0000      1.0000
   -180.00      0.0372      0.0372
   -179.00      0.0374      0.0374
   -178.00      0.0378      0.0378
   -177.00      0.0383      0.0383
   -176.00      0.0391      0.0391
   -175.00      0.0402      0.0402
   -174.00      0.0414      0.0414
   -173.00      0.0428      0.0428
   -172.00      0.0444      0.0444
   -171.00      0.0463      0.0463
   -170.00      0.0484      0.0484
   -169.00      0.0508      0.0508
   -168.00      0.0540      0.0540
   -167.00      0.0592      0.0592
   -166.00      0.0666      0.0666
   -165.00      0.0752      0.0752
   -164.00      0.0859      0.0859
   -163.00      0.0987      0.0987
   -162.00      0.1122      0.1122
   -161.00      0.1259      0.1259
   -160.00      0.1403      0.1403
   -159.00      0.1553      0.1553
   -158.00      0.1709      0.1709
   -157.00      0.1871      0.1871
   -156.00      0.2038      0.2038
   -155.00      0.2209      0.2209
   -154.00      0.2386      0.2386
   -153.00      0.2568      0.2568
   -152.00      0.2754      0.2754
   -151.00      0.2945      0.2945
   -150.00      0.3141      0.3141
   -149.00      0.3341      0.3341
   -148.00      0.3546      0.3546
   -147.00      0.3754      0.3754
   -146.00      0.3963      0.3963
   -145.00      0.4174      0.4174
   -144.00      0.4389      0.4389
   -143.00      0.4608      0.4608
   -142.00      0.4830      0.4830
   -141.00      0.5053      0.5053
   -140.00      0.5277      0.5277
   -139.00      0.5502      0.5502
   -138.00      0.5727      0.5727
   -137.00      0.5954      0.5954
   -136.00      0.6182      0.6182
   -135.00      0.6410      0.6410
   -134.00      0.6638      0.6638
   -133.00      0.6866      0.6866
   -132.00      0.7094      0.7094
   -131.00      0.7320      0.7320
   -130.00      0.7544      0.7544
   -129.00      0.7768      0.7768
   -128.00      0.7990      0.7990
   -127.00      0.8210      0.8210
   -126.00      0.8429      0.8429
   -125.00      0.8646      0.8646
   -124.00      0.8862      0.8862
   -123.00      0.9073      0.9073
   -122.00      0.9280      0.9280
   -121.00      0.9482      0.9482
   -120.00      0.9680      0.9680
   -119.00      0.9875      0.9875
   -118.00      1.0066      1.0066
   -117.00      1.0253      1.0253
   -116.00      1.0436      1.0436
   -115.00      1.0616      1.0616
   -114.00      1.0790      1.0790
   -113.00      1.0960      1.0960
   -112.00      1.1125      1.1125
   -111.00      1.1282      1.1282
   -110.00      1.1430      1.1430
   -109.00      1.1571      1.1571
   -108.00      1.1707      1.1707
   -107.00      1.1838      1.1838
   -106.00      1.1963      1.1963
   -105.00      1.2082      1.2082
   -104.00      1.2197      1.2197
   -103.00      1.2306      1.2306
   -102.00      1.2406      1.2406
   -101.00      1.2496      1.2496
   -100.00      1.2579      1.2579
    -99.00      1.2653      1.2653
    -98.00      1.2718      1.2718
    -97.00      1.2777      1.2777
    -96.00      1.2828      1.2828
    -95.00      1.2873      1.2873
    -94.00      1.2913      1.2913
    -93.00      1.2944      1.2944
    -92.00      1.2970      1.2970
    -91.00      1.2991      1.2991
    -90.00      1.3000      1.3000
    -89.00      1.2991      1.2991
    -88.00      1.2970      1.2970
    -87.00      1.2944      1.2944
    -86.00      1.2913      1.2913
    -85.00      1.2873      1.2873
    -84.00      1.2828      1.2828
    -83.00      1.2777      1.2777
    -82.00      1.2718      1.2718
    -81.00      1.2653      1.2653
    -80.00      1.2579      1.2579
    -79.00      1.2496      1.2496
    -78.00      1.2406      1.2406
    -77.00      1.2306      1.2306
    -76.00      1.2197      1.2197
    -75.00      1.2082      1.2082
    -74.00      1.1963      1.1963
    -73.00      1.1838      1.1838
    -72.00      1.1707      1.1707
    -71.00      1.1571      1.1571
    -70.00      1.1430      1.1430
    -69.00      1.1282      1.1282
    -68.00      1.1125      1.1125
    -67.00      1.0960      1.0960
    -66.00      1.0790      1.0790
    -65.00      1.0616      1.0616
    -64.00      1.0436      1.0436
    -63.00      1.0253      1.0253
    -62.00      1.0066      1.0066
    -61.00      0.9875      0.9875
    -60.00      0.9680      0.9680
    -59.00      0.9482      0.9482
    -58.00      0.9280      0.9280
    -57.00      0.9073      0.9073
    -56.00      0.8862      0.8862
    -55.00      0.8646      0.8646
    -54.00      0.8429      0.8429
    -53.00      0.8210      0.8210
    -52.00      0.7990      0.7990
    -51.00      0.7768      0.7768
    -50.00      0.7544      0.7544
    -49.00      0.7320      0.7320
    -48.00      0.7094      0.7094
    -47.00      0.6866      0.6866
    -46.00      0.6638      0.6638
    -45.00      0.6410      0.6410
    -44.00      0.6182      0.6182
    -43.00      0.5954      0.5954
    -42.00      0.5727      0.5727
    -41.00      0.5502      0.5502
    -40.00      0.5277      0.5277
    -39.00      0.5053      0.5053
    -38.00      0.4830      0.4830
    -37.00      0.4608      0.4608
    -36.00      0.4389      0.4389
    -35.00      0.4185      0.4185
    -34.00      0.3984      0.3984
    -33.00      0.3754      0.3754
    -32.00      0.3470      0.3470
    -31.00      0.3143      0.3143
    -30.00      0.2796      0.2796
    -29.00      0.2423      0.2423
    -28.00      0.2074      0.2074
    -27.00      0.1923      0.1923
    -26.00      0.1797      0.1797
    -25.00      0.1670      0.1670
    -24.00      0.1544      0.1544
    -23.00      0.1432      0.1432
    -22.00      0.1320      0.1320
    -21.00      0.1209      0.1209
    -20.00      0.1100      0.1100
    -19.00      0.1011      0.1011
    -18.00      0.0925      0.0925
    -17.00      0.0843      0.0843
    -16.00      0.0760      0.0760
    -15.00      0.0683      0.0683
    -14.00      0.0606      0.0606
    -13.00      0.0535      0.0535
    -12.00      0.0465      0.0465
    -11.00      0.0404      0.0404
    -10.00      0.0344      0.0344
     -9.00      0.0300      0.0300
     -8.00      0.0257      0.0257
     -7.00      0.0227      0.0227
     -6.00      0.0201      0.0201
     -5.00      0.0183      0.0183
     -4.00      0.0166      0.0166
     -3.00      0.0158      0.0158
     -2.00      0.0151      0.0151
     -1.00      0.0148      0.0148
      0.00      0.0147      0.0147
      1.00      0.0147      0.0147
      2.00      0.0148      0.0148
      3.00      0.0151      0.0151
      4.00      0.0155      0.0155
      5.00      0.0159      0.0159
      6.00      0.0166      0.0166
      7.00      0.0173      0.0173
      8.00      0.0184      0.0184
      9.00      0.0197      0.0197
     10.00      0.0215      0.0215
     11.00      0.0247      0.0247
     12.00      0.0299      0.0299
     13.00      0.0378      0.0378
     14.00      0.0483      0.0483
     15.00      0.0585      0.0585
     16.00      0.0701      0.0701
     17.00      0.0859      0.0859
     18.00      0.1019      0.1019
     19.00      0.1205      0.1205
     20.00      0.1391      0.1391
     21.00      0.1569      0.1569
     22.00      0.1746      0.1746
     23.00      0.1923      0.1923
     24.00      0.2100      0.2100
     25.00      0.2280      0.2280
     26.00      0.2460      0.2460
     27.00      0.2640      0.2640
     28.00      0.2820      0.2820
     29.00      0.3001      0.3001
     30.00      0.3181      0.3181
     31.00      0.3367      0.3367
     32.00      0.3557      0.3557
     33.00      0.3754      0.3754
     34.00      0.3960      0.3960
     35.00      0.4173      0.4173
     36.00      0.4389      0.4389
     37.00      0.4608      0.4608
     38.00      0.4830      0.4830
     39.00      0.5053      0.5053
     40.00      0.5277      0.5277
     41.00      0.5502      0.5502
     42.00      0.5727      0.5727
     43.00      0.5954      0.5954
     44.00      0.6182      0.6182
     45.00      0.6410      0.6410
     46.00      0.6638      0.6638
     47.00      0.6866      0.6866
     48.00      0.7094      0.7094
     49.00      0.7320      0.7320
     50.00      0.7544      0.7544
     51.00      0.7768      0.7768
     52.00      0.7990      0.7990
     53.00      0.8210      0.8210
     54.00      0.8429      0.8429
     55.00      0.8646      0.8646
     56.00      0.8862      0.8862
     57.00      0.9073      0.9073
     58.00      0.9280      0.9280
     59.00      0.9482      0.9482
     60.00      0.9680      0.9680
     61.00      0.9875      0.9875
     62.00      1.0066      1.0066
     63.00      1.0253      1.0253
     64.00      1.0436      1.0436
     65.00      1.0616      1.0616
     66.00      1.0790      1.0790
     67.00      1.0960      1.0960
     68.00      1.1125      1.1125
     69.00      1.1282      1.1282
     70.00      1.1430      1.1430
     71.00      1.1571      1.1571
     72.00      1.1707      1.1707
     73.00      1.1838      1.1838
     74.00      1.1963      1.1963
     75.00      1.2082      1.2082
     76.00      1.2197      1.2197
     77.00      1.2306      1.2306
     78.00      1.2406      1.2406
     79.00      1.2496      1.2496
     80.00      1.2579      1.2579
     81.00      1.2653      1.2653
     82.00      1.2718      1.2718
     83.00      1.2777      1.2777
     84.00      1.2828      1.2828
     85.00      1.2873      1.2873
     86.00      1.2913      1.2913
     87.00      1.2944      1.2944
     88.00      1.2970      1.2970
     89.00      1.2991      1.2991
     90.00      1.3000      1.3000
     91.00      1.2991      1.2991
     92.00      1.2970      1.2970
     93.00      1.2944      1.2944
     94.00      1.2913      1.2913
     95.00      1.2873      1.2873
     96.00      1.2828      1.2828
     97.00      1.2777      1.2777
     98.00      1.2718      1.2718
     99.00      1.2653      1.2653
    100.00      1.2579      1.2579
    101.00      1.2496      1.2496
    102.00      1.2406      1.2406
    103.00      1.2306      1.2306
    104.00      1.2197      1.2197
    105.00      1.2082      1.2082
    106.00      1.1963      1.1963
    107.00      1.1838      1.1838
    108.00      1.1707      1.1707
    109.00      1.1571      1.1571
    110.00      1.1430      1.1430
    111.00      1.1282      1.1282
    112.00      1.1125      1.1125
    113.00      1.0960      1.0960
    114.00      1.0790      1.0790
    115.00      1.0616      1.0616
    116.00      1.0436      1.0436
    117.00      1.0253      1.0253
    118.00      1.0066      1.0066
    119.00      0.9875      0.9875
    120.00      0.9680      0.9680
    121.00      0.9482      0.9482
    122.00      0.9280      0.9280
    123.00      0.9073      0.9073
    124.00      0.8862      0.8862
    125.00      0.8646      0.8646
    126.00      0.8429      0.8429
    127.00      0.8210      0.8210
    128.00      0.7990      0.7990
    129.00      0.7768      0.7768
    130.00      0.7544      0.7544
    131.00      0.7320      0.7320
    132.00      0.7094      0.7094
    133.00      0.6866      0.6866
    134.00      0.6638      0.6638
    135.00      0.6410      0.6410
    136.00      0.6182      0.6182
    137.00      0.5954      0.5954
    138.00      0.5727      0.5727
    139.00      0.5502      0.5502
    140.00      0.5277      0.5277
    141.00      0.5053      0.5053
    142.00      0.4830      0.4830
    143.00      0.4608      0.4608
    144.00      0.4389      0.4389
    145.00      0.4174      0.4174
    146.00      0.3963      0.3963
    147.00      0.3754      0.3754
    148.00      0.3546      0.3546
    149.00      0.3341      0.3341
    150.00      0.3141      0.3141
    151.00      0.2945      0.2945
    152.00      0.2754      0.2754
    153.00      0.2568      0.2568
    154.00      0.2386      0.2386
    155.00      0.2209      0.2209
    156.00      0.2038      0.2038
    157.00      0.1871      0.1871
    158.00      0.1709      0.1709
    159.00      0.1553      0.1553
    160.00      0.1403      0.1403
    161.00      0.1259      0.1259
    162.00      0.1122      0.1122
    163.00      0.0987      0.0987
    164.00      0.0859      0.0859
    165.00      0.0752      0.0752
    166.00      0.0666      0.0666
    167.00      0.0592      0.0592
    168.00      0.0540      0.0540
    169.00      0.0508      0.0508
    170.00      0.0484      0.0484
    171.00      0.0463      0.0463
    172.00      0.0444      0.0444
    173.00      0.0428      0.0428
    174.00      0.0414      0.0414
    175.00      0.0402      0.0402
    176.00      0.0391      0.0391
    177.00      0.0383      0.0383
    178.00      0.0378      0.0378
    179.00      0.0374      0.0374
    180.00      0.0372      0.0372
                0.0000      1.0000
   -180.00      0.0000      0.0000
   -179.00      0.0400      0.0400
   -178.00      0.0800      0.0800
   -177.00      0.1200      0.1200
   -176.00      0.1600      0.1600
   -175.00      0.2000      0.2000
   -174.00      0.2400      0.2400
   -173.00      0.2841      0.2841
   -172.00      0.3282      0.3282
   -171.00      0.3600      0.3600
   -170.00      0.3803      0.3803
   -169.00      0.3960      0.3960
   -168.00      0.4044      0.4044
   -167.00      0.4073      0.4073
   -166.00      0.4091      0.4091
   -165.00      0.4110      0.4110
   -164.00      0.4130      0.4130
   -163.00      0.4151      0.4151
   -162.00      0.4175      0.4175
   -161.00      0.4207      0.4207
   -160.00      0.4247      0.4247
   -159.00      0.4295      0.4295
   -158.00      0.4361      0.4361
   -157.00      0.4443      0.4443
   -156.00      0.4524      0.4524
   -155.00      0.4602      0.4602
   -154.00      0.4679      0.4679
   -153.00      0.4753      0.4753
   -152.00      0.4836      0.4836
   -151.00      0.4915      0.4915
   -150.00      0.4950      0.4950
   -149.00      0.4930      0.4930
   -148.00      0.4883      0.4883
   -147.00      0.4834      0.4834
   -146.00      0.4787      0.4787
   -145.00      0.4736      0.4736
   -144.00      0.4685      0.4685
   -143.00      0.4636      0.4636
   -142.00      0.4586      0.4586
   -141.00      0.4542      0.4542
   -140.00      0.4502      0.4502
   -139.00      0.4467      0.4467
   -138.00      0.4434      0.4434
   -137.00      0.4406      0.4406
   -136.00      0.4380      0.4380
   -135.00      0.4354      0.4354
   -134.00      0.4326      0.4326
   -133.00      0.4297      0.4297
   -132.00      0.4274      0.4274
   -131.00      0.4257      0.4257
   -130.00      0.4244      0.4244
   -129.00      0.4233      0.4233
   -128.00      0.4224      0.4224
   -127.00      0.4217      0.4217
   -126.00      0.4212      0.4212
   -125.00      0.4209      0.4209
   -124.00      0.4207      0.4207
   -123.00      0.4205      0.4205
   -122.00      0.4204      0.4204
   -121.00      0.4203      0.4203
   -120.00      0.4203      0.4203
   -119.00      0.4204      0.4204
   -118.00      0.4206      0.4206
   -117.00      0.4209      0.4209
   -116.00      0.4212      0.4212
   -115.00      0.4216      0.4216
   -114.00      0.4219      0.4219
   -113.00      0.4224      0.4224
   -112.00      0.4228      0.4228
   -111.00      0.4230      0.4230
   -110.00      0.4229      0.4229
   -109.00      0.4228      0.4228
   -108.00      0.4227      0.4227
   -107.00      0.4226      0.4226
   -106.00      0.4224      0.4224
   -105.00      0.4222      0.4222
   -104.00      0.4219      0.4219
   -103.00      0.4217      0.4217
   -102.00      0.4213      0.4213
   -101.00      0.4207      0.4207
   -100.00      0.4200      0.4200
    -99.00      0.4191      0.4191
    -98.00      0.4180      0.4180
    -97.00      0.4167      0.4167
    -96.00      0.4154      0.4154
    -95.00      0.4140      0.4140
    -94.00      0.4126      0.4126
    -93.00      0.4111      0.4111
    -92.00      0.4098      0.4098
    -91.00      0.4085      0.4085
    -90.00      0.4069      0.4069
    -89.00      0.4043      0.4043
    -88.00      0.4010      0.4010
    -87.00      0.3977      0.3977
    -86.00      0.3947      0.3947
    -85.00      0.3916      0.3916
    -84.00      0.3886      0.3886
    -83.00      0.3855      0.3855
    -82.00      0.3823      0.3823
    -81.00      0.3790      0.3790
    -80.00      0.3756      0.3756
    -79.00      0.3720      0.3720
    -78.00      0.3683      0.3683
    -77.00      0.3645      0.3645
    -76.00      0.3605      0.3605
    -75.00      0.3565      0.3565