IEA-15-240-RWT_AeroDyn15_Polar_04; 2 361 2 361 2 361
                0.0000      1.0000
   -180.00      0.0000      0.0000
   -179.00      0.0314      0.0314
   -178.00      0.0629      0.0629
   -177.00      0.0946      0.0946
   -176.00      0.1266      0.1266
   -175.00      0.1587      0.1587
   -174.00      0.1908      0.1908
   -173.00      0.2228      0.2228
   -172.00      0.2549      0.2549
   -171.00      0.2869      0.2869
   -170.00      0.3189      0.3189
   -169.00      0.3508      0.3508
   -168.00      0.3827      0.3827
   -167.00      0.4146      0.4146
   -166.00      0.4465      0.4465
   -165.00      0.4783      0.4783
   -164.00      0.5119      0.5119
   -163.00      0.5454      0.5454
   -162.00      0.5740      0.5740
   -161.00      0.6003      0.6003
   -160.00      0.6235      0.6235
   -159.00      0.6335      0.6335
   -158.00      0.6312      0.6312
   -157.00      0.6260      0.6260
   -156.00      0.6209      0.6209
   -155.00      0.6167      0.6167
   -154.00      0.6124      0.6124
   -153.00      0.6082      0.6082
   -152.00      0.6048      0.6048
   -151.00      0.6013      0.6013
   -150.00      0.5956      0.5956
   -149.00      0.5675      0.5675
   -148.00      0.5203      0.5203
   -147.00      0.4871      0.4871
   -146.00      0.4753      0.4753
   -145.00      0.4671      0.4671
   -144.00      0.4583      0.4583
   -143.00      0.4469      0.4469
   -142.00      0.4347      0.4347
   -141.00      0.4235      0.4235
   -140.00      0.4139      0.4139
   -139.00      0.4050      0.4050
   -138.00      0.3966      0.3966
   -137.00      0.3886      0.3886
   -136.00      0.3809      0.3809
   -135.00      0.3732      0.3732
   -134.00      0.3651      0.3651
   -133.00      0.3569      0.3569
   -132.00      0.3487      0.3487
   -131.00      0.3405      0.3405
   -130.00      0.3323      0.3323
   -129.00      0.3241      0.3241
   -128.00      0.3160      0.3160
   -127.00      0.3078      0.3078
   -126.00      0.2998      0.2998
   -125.00      0.2917      0.2917
   -124.00      0.2837      0.2837
   -123.00      0.2758      0.2758
   -122.00      0.2682      0.2682
   -121.00      0.2606      0.2606
   -120.00      0.2528      0.2528
   -119.00      0.2443      0.2443
   -118.00      0.2355      0.2355
   -117.00      0.2268      0.2268
   -116.00      0.2182      0.2182
   -115.00      0.2097      0.2097
   -114.00      0.2013      0.2013
   -113.00      0.1930      0.1930
   -112.00      0.1848      0.1848
   -111.00      0.1765      0.1765
   -110.00      0.1681      0.1681
   -109.00      0.1597      0.1597
   -108.00      0.1511      0.1511
   -107.00      0.1425      0.1425
   -106.00      0.1339      0.1339
   -105.00      0.1253      0.1253
   -104.00      0.1166      0.1166
   -103.00      0.1080      0.1080
   -102.00      0.0994      0.0994
   -101.00      0.0909      0.0909
   -100.00      0.0825      0.0825
    -99.00      0.0743      0.0743
    -98.00      0.0663      0.0663
    -97.00      0.0585      0.0585
    -96.00      0.0506      0.0506
    -95.00      0.0425      0.0425
    -94.00      0.0343      0.0343
    -93.00      0.0259      0.0259
    -92.00      0.0174      0.0174
    -91.00      0.0087      0.0087
    -90.00      0.0000      0.0000
    -89.00     -0.0086     -0.0086
    -88.00     -0.0173     -0.0173
    -87.00     -0.0258     -0.0258
    -86.00     -0.0342     -0.0342
    -85.00     -0.0424     -0.0424
    -84.00     -0.0505     -0.0505
    -83.00     -0.0584     -0.0584
    -82.00     -0.0662     -0.0662
    -81.00     -0.0742     -0.0742
    -80.00     -0.0824     -0.0824
    -79.00     -0.0908     -0.0908
    -78.00     -0.0993     -0.0993
    -77.00     -0.1079     -0.1079
    -76.00     -0.1165     -0.1165
    -75.00     -0.1252     -0.1252
    -74.00     -0.1338     -0.1338
    -73.00     -0.1425     -0.1425
    -72.00     -0.1510     -0.1510
    -71.00     -0.1596     -0.1596
    -70.00     -0.1680     -0.1680
    -69.00     -0.1764     -0.1764
    -68.00     -0.1847     -0.1847
    -67.00     -0.1929     -0.1929
    -66.00     -0.2012     -0.2012
    -65.00     -0.2096     -0.2096
    -64.00     -0.2181     -0.2181
    -63.00     -0.2266     -0.2266
    -62.00     -0.2353     -0.2353
    -61.00     -0.2441     -0.2441
    -60.00     -0.2526     -0.2526
    -59.00     -0.2604     -0.2604
    -58.00     -0.2680     -0.2680
    -57.00     -0.2756     -0.2756
    -56.00     -0.2835     -0.2835
    -55.00     -0.2916     -0.2916
    -54.00     -0.2996     -0.2996
    -53.00     -0.3077     -0.3077
    -52.00     -0.3158     -0.3158
    -51.00     -0.3240     -0.3240
    -50.00     -0.3322     -0.3322
    -49.00     -0.3404     -0.3404
    -48.00     -0.3486     -0.3486
    -47.00     -0.3568     -0.3568
    -46.00     -0.3650     -0.3650
    -45.00     -0.3731     -0.3731
    -44.00     -0.3809     -0.3809
    -43.00     -0.3885     -0.3885
    -42.00     -0.3965     -0.3965
    -41.00     -0.4049     -0.4049
    -40.00     -0.4138     -0.4138
    -39.00     -0.4234     -0.4234
    -38.00     -0.4346     -0.4346
    -37.00     -0.4468     -0.4468
    -36.00     -0.4583     -0.4583
    -35.00     -0.4687     -0.4687
    -34.00     -0.4785     -0.4785
    -33.00     -0.4870     -0.4870
    -32.00     -0.4953     -0.4953
    -31.00     -0.5027     -0.5027
    -30.00     -0.5059     -0.5059
    -29.00     -0.4935     -0.4935
    -28.00     -0.4845     -0.4845
    -27.00     -0.5005     -0.5005
    -26.00     -0.5201     -0.5201
    -25.00     -0.5404     -0.5404
    -24.00     -0.5615     -0.5615
    -23.00     -0.5862     -0.5862
    -22.00     -0.6117     -0.6117
    -21.00     -0.6271     -0.6271
    -20.00     -0.6369     -0.6369
    -19.00     -0.6199     -0.6199
    -18.00     -0.6120     -0.6120
    -17.00     -0.6053     -0.6053
    -16.00     -0.5876     -0.5876
    -15.00     -0.5760     -0.5760
    -14.00     -0.5504     -0.5504
    -13.00     -0.5309     -0.5309
    -12.00     -0.4971     -0.4971
    -11.00     -0.4571     -0.4571
    -10.00     -0.4383     -0.4383
     -9.00     -0.3852     -0.3852
     -8.00     -0.2941     -0.2941
     -7.00     -0.2138     -0.2138
     -6.00     -0.1321     -0.1321
     -5.00     -0.0551     -0.0551
     -4.00     -0.0093     -0.0093
     -3.00      0.0530      0.0530
     -2.00      0.1214      0.1214
     -1.00      0.1720      0.1720
      0.00      0.2135      0.2135
      1.00      0.2662      0.2662
      2.00      0.3212      0.3212
      3.00      0.3763      0.3763
      4.00      0.4311      0.4311
      5.00      0.4861      0.4861
      6.00      0.5408      0.5408
      7.00      0.5955      0.5955
      8.00      0.6502      0.6502
      9.00      0.7050      0.7050
     10.00      0.7450      0.7450
     11.00      0.7806      0.7806
     12.00      0.8021      0.8021
     13.00      0.8470      0.8470
     14.00      0.9068      0.9068
     15.00      0.9517      0.9517
     16.00      0.9867      0.9867
     17.00      1.0355      1.0355
     18.00      1.0520      1.0520
     19.00      1.0457      1.0457
     20.00      1.0380      1.0380
     21.00      1.0156      1.0156
     22.00      1.0032      1.0032
     23.00      1.0034      1.0034
     24.00      1.0055      1.0055
     25.00      0.9802      0.9802
     26.00      0.9436      0.9436
     27.00      0.9067      0.9067
     28.00      0.8656      0.8656
     29.00      0.8102      0.8102
     30.00      0.7643      0.7643
     31.00      0.7318      0.7318
     32.00      0.7038      0.7038
     33.00      0.6823      0.6823
     34.00      0.6677      0.6677
     35.00      0.6561      0.6561
     36.00      0.6436      0.6436
     37.00      0.6280      0.6280
     38.00      0.6113      0.6113
     39.00      0.5962      0.5962
     40.00      0.5837      0.5837
     41.00      0.5723      0.5723
     42.00      0.5614      0.5614
     43.00      0.5507      0.5507
     44.00      0.5404      0.5404
     45.00      0.5299      0.5299
     46.00      0.5191      0.5191
     47.00      0.5080      0.5080
     48.00      0.4969      0.4969
     49.00      0.4857      0.4857
     50.00      0.4744      0.4744
     51.00      0.4630      0.4630
     52.00      0.4514      0.4514
     53.00      0.4398      0.4398
     54.00      0.4282      0.4282
     55.00      0.4167      0.4167
     56.00      0.4053      0.4053
     57.00      0.3940      0.3940
     58.00      0.3831      0.3831
     59.00      0.3724      0.3724
     60.00      0.3611      0.3611
     61.00      0.3490      0.3490
     62.00      0.3365      0.3365
     63.00      0.3240      0.3240
     64.00      0.3118      0.3118
     65.00      0.2997      0.2997
     66.00      0.2876      0.2876
     67.00      0.2758      0.2758
     68.00      0.2641      0.2641
     69.00      0.2522      0.2522
     70.00      0.2402      0.2402
     71.00      0.2281      0.2281
     72.00      0.2159      0.2159
     73.00      0.2037      0.2037
     74.00      0.1913      0.1913
     75.00      0.1790      0.1790
     76.00      0.1666      0.1666
     77.00      0.1543      0.1543
     78.00      0.1420      0.1420
     79.00      0.1299      0.1299
     80.00      0.1179      0.1179
     81.00      0.1061      0.1061
     82.00      0.0947      0.0947
     83.00      0.0836      0.0836
     84.00      0.0723      0.0723
     85.00      0.0607      0.0607
     86.00      0.0490      0.0490
     87.00      0.0370      0.0370
     88.00      0.0243      0.0243
     89.00      0.0115      0.0115
     90.00      0.0000      0.0000
     91.00     -0.0093     -0.0093
     92.00     -0.0176     -0.0176
     93.00     -0.0258     -0.0258
     94.00     -0.0342     -0.0342
     95.00     -0.0424     -0.0424
     96.00     -0.0505     -0.0505
     97.00     -0.0584     -0.0584
     98.00     -0.0662     -0.0662
     99.00     -0.0742     -0.0742
    100.00     -0.0824     -0.0824
    101.00     -0.0908     -0.0908
    102.00     -0.0993     -0.0993
    103.00     -0.1079     -0.1079
    104.00     -0.1165     -0.1165
    105.00     -0.1252     -0.1252
    106.00     -0.1338     -0.1338
    107.00     -0.1425     -0.1425
    108.00     -0.1511     -0.1511
    109.00     -0.1596     -0.1596
    110.00     -0.1680     -0.1680
    111.00     -0.1764     -0.1764
    112.00     -0.1847     -0.1847
    113.00     -0.1929     -0.1929
    114.00     -0.2012     -0.2012
    115.00     -0.2096     -0.2096
    116.00     -0.2181     -0.2181
    117.00     -0.2266     -0.2266
    118.00     -0.2353     -0.2353
    119.00     -0.2441     -0.2441
    120.00     -0.2526     -0.2526
    121.00     -0.2604     -0.2604
    122.00     -0.2680     -0.2680
    123.00     -0.2756     -0.2756
    124.00     -0.2835     -0.2835
    125.00     -0.2916     -0.2916
    126.00     -0.2996     -0.2996
    127.00     -0.3077     -0.3077
    128.00     -0.3158     -0.3158
    129.00     -0.3240     -0.3240
    130.00     -0.3322     -0.3322
    131.00     -0.3404     -0.3404
    132.00     -0.3486     -0.3486
    133.00     -0.3568     -0.3568
    134.00     -0.3650     -0.3650
    135.00     -0.3731     -0.3731
    136.00     -0.3809     -0.3809
    137.00     -0.3885     -0.3885
    138.00     -0.3965     -0.3965
    139.00     -0.4049     -0.4049
    140.00     -0.4138     -0.4138
    141.00     -0.4234     -0.4234
    142.00     -0.4346     -0.4346
    143.00     -0.4468     -0.4468
    144.00     -0.4583     -0.4583
    145.00     -0.4670     -0.4670
    146.00     -0.4752     -0.4752
    147.00     -0.4870     -0.4870
    148.00     -0.5202     -0.5202
    149.00     -0.5674     -0.5674
    150.00     -0.5955     -0.5955
    151.00     -0.6012     -0.6012
    152.00     -0.6047     -0.6047
    153.00     -0.6082     -0.6082
    154.00     -0.6124     -0.6124
    155.00     -0.6166     -0.6166
    156.00     -0.6208     -0.6208
    157.00     -0.6259     -0.6259
    158.00     -0.6311     -0.6311
    159.00     -0.6334     -0.6334
    160.00     -0.6234     -0.6234
    161.00     -0.6002     -0.6002
    162.00     -0.5739     -0.5739
    163.00     -0.5453     -0.5453
    164.00     -0.5117     -0.5117
    165.00     -0.4782     -0.4782
    166.00     -0.4463     -0.4463
    167.00     -0.4144     -0.4144
    168.00     -0.3825     -0.3825
    169.00     -0.3506     -0.3506
    170.00     -0.3187     -0.3187
    171.00     -0.2867     -0.2867
    172.00     -0.2547     -0.2547
    173.00     -0.2227     -0.2227
    174.00     -0.1906     -0.1906
    175.00     -0.1585     -0.1585
    176.00     -0.1265     -0.1265
    177.00     -0.0945     -0.0945
    178.00     -0.0628     -0.0628
    179.00     -0.0313     -0.0313
    180.00      0.0000      0.0000
                0.0000      1.0000
   -180.00      0.2272      0.2272
   -179.00      0.2270      0.2270
   -178.00      0.2267      0.2267
   -177.00      0.2264      0.2264
   -176.00      0.2258      0.2258
   -175.00      0.2251      0.2251
   -174.00      0.2243      0.2243
   -173.00      0.2230      0.2230
   -172.00      0.2215      0.2215
   -171.00      0.2208      0.2208
   -170.00      0.2221      0.2221
   -169.00      0.2246      0.2246
   -168.00      0.2263      0.2263
   -167.00      0.2270      0.2270
   -166.00      0.2275      0.2275
   -165.00      0.2277      0.2277
   -164.00      0.2245      0.2245
   -163.00      0.2187      0.2187
   -162.00      0.2156      0.2156
   -161.00      0.2162      0.2162
   -160.00      0.2178      0.2178
   -159.00      0.2202      0.2202
   -158.00      0.2271      0.2271
   -157.00      0.2391      0.2391
   -156.00      0.2508      0.2508
   -155.00      0.2606      0.2606
   -154.00      0.2702      0.2702
   -153.00      0.2796      0.2796
   -152.00      0.2883      0.2883
   -151.00      0.2968      0.2968
   -150.00      0.3067      0.3067
   -149.00      0.3208      0.3208
   -148.00      0.3373      0.3373
   -147.00      0.3505      0.3505
   -146.00      0.3587      0.3587
   -145.00      0.3653      0.3653
   -144.00      0.3728      0.3728
   -143.00      0.3824      0.3824
   -142.00      0.3933      0.3933
   -141.00      0.4045      0.4045
   -140.00      0.4159      0.4159
   -139.00      0.4277      0.4277
   -138.00      0.4396      0.4396
   -137.00      0.4518      0.4518
   -136.00      0.4642      0.4642
   -135.00      0.4766      0.4766
   -134.00      0.4889      0.4889
   -133.00      0.5013      0.5013
   -132.00      0.5135      0.5135
   -131.00      0.5258      0.5258
   -130.00      0.5379      0.5379
   -129.00      0.5499      0.5499
   -128.00      0.5615      0.5615
   -127.00      0.5729      0.5729
   -126.00      0.5844      0.5844
   -125.00      0.5962      0.5962
   -124.00      0.6081      0.6081
   -123.00      0.6203      0.6203
   -122.00      0.6336      0.6336
   -121.00      0.6472      0.6472
   -120.00      0.6592      0.6592
   -119.00      0.6689      0.6689
   -118.00      0.6775      0.6775
   -117.00      0.6864      0.6864
   -116.00      0.6961      0.6961
   -115.00      0.7060      0.7060
   -114.00      0.7164      0.7164
   -113.00      0.7278      0.7278
   -112.00      0.7397      0.7397
   -111.00      0.7502      0.7502
   -110.00      0.7589      0.7589
   -109.00      0.7667      0.7667
   -108.00      0.7740      0.7740
   -107.00      0.7809      0.7809
   -106.00      0.7874      0.7874
   -105.00      0.7943      0.7943
   -104.00      0.8022      0.8022
   -103.00      0.8107      0.8107
   -102.00      0.8189      0.8189
   -101.00      0.8269      0.8269
   -100.00      0.8347      0.8347
    -99.00      0.8403      0.8403
    -98.00      0.8433      0.8433
    -97.00      0.8456      0.8456
    -96.00      0.8482      0.8482
    -95.00      0.8519      0.8519
    -94.00      0.8564      0.8564
    -93.00      0.8613      0.8613
    -92.00      0.8684      0.8684
    -91.00      0.8761      0.8761
    -90.00      0.8798      0.8798
    -89.00      0.8761      0.8761
    -88.00      0.8684      0.8684
    -87.00      0.8613      0.8613
    -86.00      0.8564      0.8564
    -85.00      0.8519      0.8519
    -84.00      0.8482      0.8482
    -83.00      0.8456      0.8456
    -82.00      0.8433      0.8433
    -81.00      0.8403      0.8403
    -80.00      0.8347      0.8347
    -79.00      0.8270      0.8270
    -78.00      0.8189      0.8189
    -77.00      0.8107      0.8107
    -76.00      0.8022      0.8022
    -75.00      0.7943      0.7943
    -74.00      0.7874      0.7874
    -73.00      0.7809      0.7809
    -72.00      0.7740      0.7740
    -71.00      0.7667      0.7667
    -70.00      0.7589      0.7589
    -69.00      0.7502      0.7502
    -68.00      0.7397      0.7397
    -67.00      0.7278      0.7278
    -66.00      0.7164      0.7164
    -65.00      0.7060      0.7060
    -64.00      0.6961      0.6961
    -63.00      0.6864      0.6864
    -62.00      0.6775      0.6775
    -61.00      0.6689      0.6689
    -60.00      0.6592      0.6592
    -59.00      0.6472      0.6472
    -58.00      0.6336      0.6336
    -57.00      0.6203      0.6203
    -56.00      0.6081      0.6081
    -55.00      0.5962      0.5962
    -54.00      0.5844      0.5844
    -53.00      0.5729      0.5729
    -52.00      0.5615      0.5615
    -51.00      0.5499      0.5499
    -50.00      0.5379      0.5379
    -49.00      0.5258      0.5258
    -48.00      0.5135      0.5135
    -47.00      0.5013      0.5013
    -46.00      0.4889      0.4889
    -45.00      0.4766      0.4766
    -44.00      0.4642      0.4642
    -43.00      0.4518      0.4518
    -42.00      0.4397      0.4397
    -41.00      0.4277      0.4277
    -40.00      0.4159      0.4159
    -39.00      0.4045      0.4045
    -38.00      0.3933      0.3933
    -37.00      0.3824      0.3824
    -36.00      0.3728      0.3728
    -35.00      0.3649      0.3649
    -34.00      0.3579      0.3579
    -33.00      0.3505      0.3505
    -32.00      0.3405      0.3405
    -31.00      0.3302      0.3302
    -30.00      0.3254      0.3254
    -29.00      0.3306      0.3306
    -28.00      0.3328      0.3328
    -27.00      0.3263      0.3263
    -26.00      0.3179      0.3179
    -25.00      0.3093      0.3093
    -24.00      0.3005      0.3005
    -23.00      0.2908      0.2908
    -22.00      0.2809      0.2809
    -21.00      0.2708      0.2708
    -20.00      0.2605      0.2605
    -19.00      0.2579      0.2579
    -18.00      0.2544      0.2544
    -17.00      0.2511      0.2511
    -16.00      0.2494      0.2494
    -15.00      0.2465      0.2465
    -14.00      0.2452      0.2452
    -13.00      0.2432      0.2432
    -12.00      0.2422      0.2422
    -11.00      0.2408      0.2408
    -10.00      0.2390      0.2390
     -9.00      0.2384      0.2384
     -8.00      0.2385      0.2385
     -7.00      0.2388      0.2388
     -6.00      0.2392      0.2392
     -5.00      0.2395      0.2395
     -4.00      0.2400      0.2400
     -3.00      0.2402      0.2402
     -2.00      0.2407      0.2407
     -1.00      0.2409      0.2409
      0.00      0.2410      0.2410
      1.00      0.2412      0.2412
      2.00      0.2413      0.2413
      3.00      0.2415      0.2415
      4.00      0.2416      0.2416
      5.00      0.2418      0.2418
      6.00      0.2418      0.2418
      7.00      0.2419      0.2419
      8.00      0.2420      0.2420
      9.00      0.2419      0.2419
     10.00      0.2417      0.2417
     11.00      0.2409      0.2409
     12.00      0.2399      0.2399
     13.00      0.2378      0.2378
     14.00      0.2355      0.2355
     15.00      0.2345      0.2345
     16.00      0.2348      0.2348
     17.00      0.2352      0.2352
     18.00      0.2380      0.2380
     19.00      0.2404      0.2404
     20.00      0.2430      0.2430
     21.00      0.2469      0.2469
     22.00      0.2488      0.2488
     23.00      0.2505      0.2505
     24.00      0.2540      0.2540
     25.00      0.2613      0.2613
     26.00      0.2715      0.2715
     27.00      0.2819      0.2819
     28.00      0.2922      0.2922
     29.00      0.3024      0.3024
     30.00      0.3139      0.3139
     31.00      0.3269      0.3269
     32.00      0.3401      0.3401
     33.00      0.3520      0.3520
     34.00      0.3618      0.3618
     35.00      0.3707      0.3707
     36.00      0.3798      0.3798
     37.00      0.3897      0.3897
     38.00      0.3999      0.3999
     39.00      0.4104      0.4104
     40.00      0.4215      0.4215
     41.00      0.4330      0.4330
     42.00      0.4446      0.4446
     43.00      0.4562      0.4562
     44.00      0.4680      0.4680
     45.00      0.4797      0.4797
     46.00      0.4914      0.4914
     47.00      0.5031      0.5031
     48.00      0.5148      0.5148
     49.00      0.5266      0.5266
     50.00      0.5383      0.5383
     51.00      0.5499      0.5499
     52.00      0.5614      0.5614
     53.00      0.5729      0.5729
     54.00      0.5844      0.5844
     55.00      0.5962      0.5962
     56.00      0.6081      0.6081
     57.00      0.6203      0.6203
     58.00      0.6336      0.6336
     59.00      0.6472      0.6472
     60.00      0.6592      0.6592
     61.00      0.6689      0.6689
     62.00      0.6775      0.6775
     63.00      0.6864      0.6864
     64.00      0.6961      0.6961
     65.00      0.7060      0.7060
     66.00      0.7164      0.7164
     67.00      0.7278      0.7278
     68.00      0.7397      0.7397
     69.00      0.7502      0.7502
     70.00      0.7589      0.7589
     71.00      0.7667      0.7667
     72.00      0.7740      0.7740
     73.00      0.7809      0.7809
     74.00      0.7874      0.7874
     75.00      0.7943      0.7943
     76.00      0.8022      0.8022
     77.00      0.8107      0.8107
     78.00      0.8189      0.8189
     79.00      0.8270      0.8270
     80.00      0.8347      0.8347
     81.00      0.8403      0.8403
     82.00      0.8433      0.8433
     83.00      0.8456      0.8456
     84.00      0.8482      0.8482
     85.00      0.8519      0.8519
     86.00      0.8564      0.8564
     87.00      0.8613      0.8613
     88.00      0.8684      0.8684
     89.00      0.8761      0.8761
     90.00      0.8798      0.8798
     91.00      0.8761      0.8761
     92.00      0.8684      0.8684
     93.00      0.8613      0.8613
     94.00      0.8564      0.8564
     95.00      0.8519      0.8519
     96.00      0.8482      0.8482
     97.00      0.8456      0.8456
     98.00      0.8433      0.8433
     99.00      0.8403      0.8403
    100.00      0.8347      0.8347
    101.00      0.8269      0.8269
    102.00      0.8189      0.8189
    103.00      0.8107      0.8107
    104.00      0.8022      0.8022
    105.00      0.7943      0.7943
    106.00      0.7874      0.7874
    107.00      0.7809      0.7809
    108.00      0.7740      0.7740
    109.00      0.7667      0.7667
    110.00      0.7589      0.7589
    111.00      0.7502      0.7502
    112.00      0.7397      0.7397
    113.00      0.7278      0.7278
    114.00      0.7164      0.7164
    115.00      0.7060      0.7060
    116.00      0.6961      0.6961
    117.00      0.6864      0.6864
    118.00      0.6775      0.6775
    119.00      0.6689      0.6689
    120.00      0.6592      0.6592
    121.00      0.6472      0.6472
    122.00      0.6336      0.6336
    123.00      0.6203      0.6203
    124.00      0.6081      0.6081
    125.00      0.5962      0.5962
    126.00      0.5844      0.5844
    127.00      0.5729      0.5729
    128.00      0.5615      0.5615
    129.00      0.5499      0.5499
    130.00      0.5379      0.5379
    131.00      0.5258      0.5258
    132.00      0.5135      0.5135
    133.00      0.5013      0.5013
    134.00      0.4889      0.4889
    135.00      0.4766      0.4766
    136.00      0.4642      0.4642
    137.00      0.4518      0.4518
    138.00      0.4396      0.4396
    139.00      0.4277      0.4277
    140.00      0.4159      0.4159
    141.00      0.4045      0.4045
    142.00      0.3933      0.3933
    143.00      0.3824      0.3824
    144.00      0.3728      0.3728
    145.00      0.3653      0.3653
    146.00      0.3587      0.3587
    147.00      0.3505      0.3505
    148.00      0.3373      0.3373
    149.00      0.3208      0.3208
    150.00      0.3067      0.3067
    151.00      0.2968      0.2968
    152.00      0.2883      0.2883
    153.00      0.2796      0.2796
    154.00      0.2702      0.2702
    155.00      0.2606      0.2606
    156.00      0.2508      0.2508
    157.00      0.2391      0.2391
    158.00      0.2271      0.2271
    159.00      0.2202      0.2202
    160.00      0.2178      0.2178
    161.00      0.2162      0.2162
    162.00      0.2156      0.2156
    163.00      0.2187      0.2187
    164.00      0.2245      0.2245
    165.00      0.2277      0.2277
    166.00      0.2275      0.2275
    167.00      0.2270      0.2270
    168.00      0.2263      0.2263
    169.00      0.2246      0.2246
    170.00      0.2221      0.2221
    171.00      0.2208      0.2208
    172.00      0.2215      0.2215
    173.00      0.2230      0.2230
    174.00      0.2243      0.2243
    175.00      0.2251      0.2251
    176.00      0.2258      0.2258
    177.00      0.2264      0.2264
    178.00      0.2267      0.2267
    179.00      0.2270      0.2270
    180.00      0.2272      0.2272
                0.0000      1.0000
   -180.00     -0.0000     -0.0000
   -179.00      0.0119      0.0119
   -178.00      0.0241      0.0241
   -177.00      0.0363      0.0363
   -176.00      0.0488      0.0488
   -175.00      0.0614      0.0614
   -174.00      0.0739      0.0739
   -173.00      0.0888      0.0888
   -172.00      0.1037      0.1037
   -171.00      0.1116      0.1116
   -170.00      0.1132      0.1132
   -169.00      0.1143      0.1143
   -168.00      0.1147      0.1147
   -167.00      0.1121      0.1121
   -166.00      0.1066      0.1066
   -165.00      0.1010      0.1010
   -164.00      0.0966      0.0966
   -163.00      0.0923      0.0923
   -162.00      0.0878      0.0878
   -161.00      0.0831      0.0831
   -160.00      0.0783      0.0783
   -159.00      0.0732      0.0732
   -158.00      0.0670      0.0670
   -157.00      0.0604      0.0604
   -156.00      0.0563      0.0563
   -155.00      0.0547      0.0547
   -154.00      0.0536      0.0536
   -153.00      0.0525      0.0525
   -152.00      0.0515      0.0515
   -151.00      0.0505      0.0505
   -150.00      0.0495      0.0495
   -149.00      0.0481      0.0481
   -148.00      0.0465      0.0465
   -147.00      0.0450      0.0450
   -146.00      0.0436      0.0436
   -145.00      0.0422      0.0422
   -144.00      0.0409      0.0409
   -143.00      0.0394      0.0394
   -142.00      0.0379      0.0379
   -141.00      0.0368      0.0368
   -140.00      0.0361      0.0361
   -139.00      0.0355      0.0355
   -138.00      0.0351      0.0351
   -137.00      0.0349      0.0349
   -136.00      0.0347      0.0347
   -135.00      0.0345      0.0345
   -134.00      0.0343      0.0343
   -133.00      0.0341      0.0341
   -132.00      0.0339      0.0339
   -131.00      0.0338      0.0338
   -130.00      0.0337      0.0337
   -129.00      0.0337      0.0337
   -128.00      0.0338      0.0338
   -127.00      0.0341      0.0341
   -126.00      0.0344      0.0344
   -125.00      0.0346      0.0346
   -124.00      0.0348      0.0348
   -123.00      0.0350      0.0350
   -122.00      0.0352      0.0352
   -121.00      0.0354      0.0354
   -120.00      0.0356      0.0356
   -119.00      0.0359      0.0359
   -118.00      0.0363      0.0363
   -117.00      0.0366      0.0366
   -116.00      0.0369      0.0369
   -115.00      0.0373      0.0373
   -114.00      0.0376      0.0376
   -113.00      0.0380      0.0380
   -112.00      0.0383      0.0383
   -111.00      0.0386      0.0386
   -110.00      0.0389      0.0389
   -109.00      0.0392      0.0392
   -108.00      0.0395      0.0395
   -107.00      0.0397      0.0397
   -106.00      0.0400      0.0400
   -105.00      0.0402      0.0402
   -104.00      0.0405      0.0405
   -103.00      0.0408      0.0408
   -102.00      0.0410      0.0410
   -101.00      0.0413      0.0413
   -100.00      0.0415      0.0415
    -99.00      0.0416      0.0416
    -98.00      0.0416      0.0416
    -97.00      0.0416      0.0416
    -96.00      0.0416      0.0416
    -95.00      0.0416      0.0416
    -94.00      0.0416      0.0416
    -93.00      0.0416      0.0416
    -92.00      0.0416      0.0416
    -91.00      0.0417      0.0417
    -90.00      0.0417      0.0417
    -89.00      0.0414      0.0414
    -88.00      0.0407      0.0407
    -87.00      0.0401      0.0401
    -86.00      0.0395      0.0395
    -85.00      0.0390      0.0390
    -84.00      0.0385      0.0385
    -83.00      0.0380      0.0380
    -82.00      0.0375      0.0375
    -81.00      0.0369      0.0369
    -80.00      0.0363      0.0363
    -79.00      0.0356      0.0356
    -78.00      0.0349      0.0349
    -77.00      0.0342      0.0342
    -76.00      0.0335      0.0335
    -75.00      0.0328      0.0328