IEA-15-240-RWT_AeroDyn15_Polar_25; 2 361 2 361 2 361
                0.0000      1.0000
   -180.00      0.0000      0.0000
   -179.00      0.0276      0.0276
   -178.00      0.0551      0.0551
   -177.00      0.0827      0.0827
   -176.00      0.1102      0.1102
   -175.00      0.1378      0.1378
   -174.00      0.1653      0.1653
   -173.00      0.1929      0.1929
   -172.00      0.2204      0.2204
   -171.00      0.2480      0.2480
   -170.00      0.2756      0.2756
   -169.00      0.3031      0.3031
   -168.00      0.3307      0.3307
   -167.00      0.3582      0.3582
   -166.00      0.3858      0.3858
   -165.00      0.4133      0.4133
   -164.00      0.4409      0.4409
   -163.00      0.4685      0.4685
   -162.00      0.4960      0.4960
   -161.00      0.5236      0.5236
   -160.00      0.5511      0.5511
   -159.00      0.5787      0.5787
   -158.00      0.6062      0.6062
   -157.00      0.6338      0.6338
   -156.00      0.6613      0.6613
   -155.00      0.6889      0.6889
   -154.00      0.7165      0.7165
   -153.00      0.7440      0.7440
   -152.00      0.7736      0.7736
   -151.00      0.8032      0.8032
   -150.00      0.8267      0.8267
   -149.00      0.8455      0.8455
   -148.00      0.8613      0.8613
   -147.00      0.8679      0.8679
   -146.00      0.8600      0.8600
   -145.00      0.8428      0.8428
   -144.00      0.8261      0.8261
   -143.00      0.8131      0.8131
   -142.00      0.8006      0.8006
   -141.00      0.7882      0.7882
   -140.00      0.7758      0.7758
   -139.00      0.7635      0.7635
   -138.00      0.7512      0.7512
   -137.00      0.7390      0.7390
   -136.00      0.7268      0.7268
   -135.00      0.7145      0.7145
   -134.00      0.7022      0.7022
   -133.00      0.6899      0.6899
   -132.00      0.6773      0.6773
   -131.00      0.6646      0.6646
   -130.00      0.6516      0.6516
   -129.00      0.6385      0.6385
   -128.00      0.6251      0.6251
   -127.00      0.6114      0.6114
   -126.00      0.5976      0.5976
   -125.00      0.5838      0.5838
   -124.00      0.5697      0.5697
   -123.00      0.5554      0.5554
   -122.00      0.5407      0.5407
   -121.00      0.5257      0.5257
   -120.00      0.5106      0.5106
   -119.00      0.4952      0.4952
   -118.00      0.4797      0.4797
   -117.00      0.4640      0.4640
   -116.00      0.4481      0.4481
   -115.00      0.4321      0.4321
   -114.00      0.4158      0.4158
   -113.00      0.3994      0.3994
   -112.00      0.3828      0.3828
   -111.00      0.3660      0.3660
   -110.00      0.3490      0.3490
   -109.00      0.3318      0.3318
   -108.00      0.3145      0.3145
   -107.00      0.2971      0.2971
   -106.00      0.2797      0.2797
   -105.00      0.2622      0.2622
   -104.00      0.2446      0.2446
   -103.00      0.2270      0.2270
   -102.00      0.2093      0.2093
   -101.00      0.1916      0.1916
   -100.00      0.1738      0.1738
    -99.00      0.1561      0.1561
    -98.00      0.1384      0.1384
    -97.00      0.1208      0.1208
    -96.00      0.1033      0.1033
    -95.00      0.0858      0.0858
    -94.00      0.0684      0.0684
    -93.00      0.0512      0.0512
    -92.00      0.0340      0.0340
    -91.00      0.0170      0.0170
    -90.00     -0.0000     -0.0000
    -89.00     -0.0170     -0.0170
    -88.00     -0.0340     -0.0340
    -87.00     -0.0512     -0.0512
    -86.00     -0.0684     -0.0684
    -85.00     -0.0858     -0.0858
    -84.00     -0.1033     -0.1033
    -83.00     -0.1208     -0.1208
    -82.00     -0.1384     -0.1384
    -81.00     -0.1561     -0.1561
    -80.00     -0.1738     -0.1738
    -79.00     -0.1916     -0.1916
    -78.00     -0.2093     -0.2093
    -77.00     -0.2270     -0.2270
    -76.00     -0.2446     -0.2446
    -75.00     -0.2622     -0.2622
    -74.00     -0.2797     -0.2797
    -73.00     -0.2971     -0.2971
    -72.00     -0.3145     -0.3145
    -71.00     -0.3318     -0.3318
    -70.00     -0.3490     -0.3490
    -69.00     -0.3660     -0.3660
    -68.00     -0.3828     -0.3828
    -67.00     -0.3994     -0.3994
    -66.00     -0.4158     -0.4158
    -65.00     -0.4321     -0.4321
    -64.00     -0.4481     -0.4481
    -63.00     -0.4640     -0.4640
    -62.00     -0.4797     -0.4797
    -61.00     -0.4952     -0.4952
    -60.00     -0.5106     -0.5106
    -59.00     -0.5257     -0.5257
    -58.00     -0.5407     -0.5407
    -57.00     -0.5554     -0.5554
    -56.00     -0.5697     -0.5697
    -55.00     -0.5838     -0.5838
    -54.00     -0.5976     -0.5976
    -53.00     -0.6114     -0.6114
    -52.00     -0.6251     -0.6251
    -51.00     -0.6385     -0.6385
    -50.00     -0.6516     -0.6516
    -49.00     -0.6646     -0.6646
    -48.00     -0.6773     -0.6773
    -47.00     -0.6907     -0.6907
    -46.00     -0.7039     -0.7039
    -45.00     -0.7145     -0.7145
    -44.00     -0.7218     -0.7218
    -43.00     -0.7277     -0.7277
    -42.00     -0.7340     -0.7340
    -41.00     -0.7413     -0.7413
    -40.00     -0.7490     -0.7490
    -39.00     -0.7571     -0.7571
    -38.00     -0.7656     -0.7656
    -37.00     -0.7747     -0.7747
    -36.00     -0.7844     -0.7844
    -35.00     -0.7939     -0.7939
    -34.00     -0.8044     -0.8044
    -33.00     -0.8191     -0.8191
    -32.00     -0.8477     -0.8477
    -31.00     -0.8911     -0.8911
    -30.00     -0.9398     -0.9398
    -29.00     -0.9948     -0.9948
    -28.00     -1.0441     -1.0441
    -27.00     -1.0467     -1.0467
    -26.00     -1.0430     -1.0430
    -25.00     -1.0409     -1.0409
    -24.00     -1.0409     -1.0409
    -23.00     -1.0422     -1.0422
    -22.00     -1.0441     -1.0441
    -21.00     -1.0460     -1.0460
    -20.00     -1.0467     -1.0467
    -19.00     -1.0447     -1.0447
    -18.00     -1.0420     -1.0420
    -17.00     -1.0367     -1.0367
    -16.00     -1.0318     -1.0318
    -15.00     -1.0547     -1.0547
    -14.00     -1.0806     -1.0806
    -13.00     -1.0884     -1.0884
    -12.00     -1.0822     -1.0822
    -11.00     -1.0076     -1.0076
    -10.00     -0.9226     -0.9226
     -9.00     -0.8100     -0.8100
     -8.00     -0.6946     -0.6946
     -7.00     -0.5692     -0.5692
     -6.00     -0.4418     -0.4418
     -5.00     -0.3055     -0.3055
     -4.00     -0.1680     -0.1680
     -3.00     -0.0310     -0.0310
     -2.00      0.1060      0.1060
     -1.00      0.2401      0.2401
      0.00      0.3723      0.3723
      1.00      0.5042      0.5042
      2.00      0.6345      0.6345
      3.00      0.7635      0.7635
      4.00      0.8913      0.8913
      5.00      1.0171      1.0171
      6.00      1.1404      1.1404
      7.00      1.2622      1.2622
      8.00      1.3808      1.3808
      9.00      1.4957      1.4957
     10.00      1.6057      1.6057
     11.00      1.7067      1.7067
     12.00      1.7976      1.7976
     13.00      1.8742      1.8742
     14.00      1.9243      1.9243
     15.00      1.9122      1.9122
     16.00      1.8866      1.8866
     17.00      1.8076      1.8076
     18.00      1.7256      1.7256
     19.00      1.6324      1.6324
     20.00      1.5431      1.5431
     21.00      1.4859      1.4859
     22.00      1.4334      1.4334
     23.00      1.3810      1.3810
     24.00      1.3303      1.3303
     25.00      1.3131      1.3131
     26.00      1.3006      1.3006
     27.00      1.2930      1.2930
     28.00      1.2817      1.2817
     29.00      1.2620      1.2620
     30.00      1.2419      1.2419
     31.00      1.2225      1.2225
     32.00      1.2036      1.2036
     33.00      1.1852      1.1852
     34.00      1.1674      1.1674
     35.00      1.1501      1.1501
     36.00      1.1339      1.1339
     37.00      1.1191      1.1191
     38.00      1.1051      1.1051
     39.00      1.0918      1.0918
     40.00      1.0788      1.0788
     41.00      1.0663      1.0663
     42.00      1.0543      1.0543
     43.00      1.0434      1.0434
     44.00      1.0329      1.0329
     45.00      1.0208      1.0208
     46.00      1.0049      1.0049
     47.00      0.9864      0.9864
     48.00      0.9676      0.9676
     49.00      0.9494      0.9494
     50.00      0.9309      0.9309
     51.00      0.9121      0.9121
     52.00      0.8929      0.8929
     53.00      0.8735      0.8735
     54.00      0.8538      0.8538
     55.00      0.8339      0.8339
     56.00      0.8139      0.8139
     57.00      0.7934      0.7934
     58.00      0.7725      0.7725
     59.00      0.7511      0.7511
     60.00      0.7294      0.7294
     61.00      0.7075      0.7075
     62.00      0.6853      0.6853
     63.00      0.6628      0.6628
     64.00      0.6402      0.6402
     65.00      0.6172      0.6172
     66.00      0.5940      0.5940
     67.00      0.5706      0.5706
     68.00      0.5468      0.5468
     69.00      0.5228      0.5228
     70.00      0.4985      0.4985
     71.00      0.4740      0.4740
     72.00      0.4493      0.4493
     73.00      0.4245      0.4245
     74.00      0.3996      0.3996
     75.00      0.3746      0.3746
     76.00      0.3495      0.3495
     77.00      0.3243      0.3243
     78.00      0.2990      0.2990
     79.00      0.2737      0.2737
     80.00      0.2483      0.2483
     81.00      0.2230      0.2230
     82.00      0.1978      0.1978
     83.00      0.1726      0.1726
     84.00      0.1475      0.1475
     85.00      0.1226      0.1226
     86.00      0.0978      0.0978
     87.00      0.0731      0.0731
     88.00      0.0477      0.0477
     89.00      0.0224      0.0224
     90.00      0.0000      0.0000
     91.00     -0.0184     -0.0184
     92.00     -0.0347     -0.0347
     93.00     -0.0512     -0.0512
     94.00     -0.0684     -0.0684
     95.00     -0.0858     -0.0858
     96.00     -0.1033     -0.1033
     97.00     -0.1208     -0.1208
     98.00     -0.1384     -0.1384
     99.00     -0.1561     -0.1561
    100.00     -0.1738     -0.1738
    101.00     -0.1916     -0.1916
    102.00     -0.2093     -0.2093
    103.00     -0.2270     -0.2270
    104.00     -0.2446     -0.2446
    105.00     -0.2622     -0.2622
    106.00     -0.2797     -0.2797
    107.00     -0.2971     -0.2971
    108.00     -0.3145     -0.3145
    109.00     -0.3318     -0.3318
    110.00     -0.3490     -0.3490
    111.00     -0.3660     -0.3660
    112.00     -0.3828     -0.3828
    113.00     -0.3994     -0.3994
    114.00     -0.4158     -0.4158
    115.00     -0.4321     -0.4321
    116.00     -0.4481     -0.4481
    117.00     -0.4640     -0.4640
    118.00     -0.4797     -0.4797
    119.00     -0.4952     -0.4952
    120.00     -0.5106     -0.5106
    121.00     -0.5257     -0.5257
    122.00     -0.5407     -0.5407
    123.00     -0.5554     -0.5554
    124.00     -0.5697     -0.5697
    125.00     -0.5838     -0.5838
    126.00     -0.5976     -0.5976
    127.00     -0.6114     -0.6114
    128.00     -0.6251     -0.6251
    129.00     -0.6385     -0.6385
    130.00     -0.6516     -0.6516
    131.00     -0.6646     -0.6646
    132.00     -0.6773     -0.6773
    133.00     -0.6899     -0.6899
    134.00     -0.7022     -0.7022
    135.00     -0.7145     -0.7145
    136.00     -0.7268     -0.7268
    137.00     -0.7390     -0.7390
    138.00     -0.7512     -0.7512
    139.00     -0.7635     -0.7635
    140.00     -0.7758     -0.7758
    141.00     -0.7882     -0.7882
    142.00     -0.8006     -0.8006
    143.00     -0.8131     -0.8131
    144.00     -0.8261     -0.8261
    145.00     -0.8428     -0.8428
    146.00     -0.8600     -0.8600
    147.00     -0.8679     -0.8679
    148.00     -0.8613     -0.8613
    149.00     -0.8455     -0.8455
    150.00     -0.8267     -0.8267
    151.00     -0.8032     -0.8032
    152.00     -0.7736     -0.7736
    153.00     -0.7440     -0.7440
    154.00     -0.7165     -0.7165
    155.00     -0.6889     -0.6889
    156.00     -0.6613     -0.6613
    157.00     -0.6338     -0.6338
    158.00     -0.6062     -0.6062
    159.00     -0.5787     -0.5787
    160.00     -0.5511     -0.5511
    161.00     -0.5236     -0.5236
    162.00     -0.4960     -0.4960
    163.00     -0.4685     -0.4685
    164.00     -0.4409     -0.4409
    165.00     -0.4133     -0.4133
    166.00     -0.3858     -0.3858
    167.00     -0.3582     -0.3582
    168.00     -0.3307     -0.3307
    169.00     -0.3031     -0.3031
    170.00     -0.2756     -0.2756
    171.00     -0.2480     -0.2480
    172.00     -0.2204     -0.2204
    173.00     -0.1929     -0.1929
    174.00     -0.1653     -0.1653
    175.00     -0.1378     -0.1378
    176.00     -0.1102     -0.1102
    177.00     -0.0827     -0.0827
    178.00     -0.0551     -0.0551
    179.00     -0.0276     -0.0276
    180.00      0.0000      0.0000
                0.0000      1.0000
   -180.00      0.0175      0.0175
   -179.00      0.0177      0.0177
   -178.00      0.0182      0.0182
   -177.00      0.0187      0.0187
   -176.00      0.0195      0.0195
   -175.00      0.0207      0.0207
   -174.00      0.0220      0.0220
   -173.00      0.0234      0.0234
   -172.00      0.0252      0.0252
   -171.00      0.0273      0.0273
   -170.00      0.0304      0.0304
   -169.00      0.0347      0.0347
   -168.00      0.0402      0.0402
   -167.00      0.0488      0.0488
   -166.00      0.0605      0.0605
   -165.00      0.0729      0.0729
   -164.00      0.0852      0.0852
   -163.00      0.0983      0.0983
   -162.00      0.1120      0.1120
   -161.00      0.1265      0.1265
   -160.00      0.1417      0.1417
   -159.00      0.1574      0.1574
   -158.00      0.1739      0.1739
   -157.00      0.1909      0.1909
   -156.00      0.2085      0.2085
   -155.00      0.2266      0.2266
   -154.00      0.2453      0.2453
   -153.00      0.2644      0.2644
   -152.00      0.2840      0.2840
   -151.00      0.3042      0.3042
   -150.00      0.3248      0.3248
   -149.00      0.3459      0.3459
   -148.00      0.3675      0.3675
   -147.00      0.3894      0.3894
   -146.00      0.4114      0.4114
   -145.00      0.4337      0.4337
   -144.00      0.4563      0.4563
   -143.00      0.4794      0.4794
   -142.00      0.5027      0.5027
   -141.00      0.5263      0.5263
   -140.00      0.5499      0.5499
   -139.00      0.5736      0.5736
   -138.00      0.5974      0.5974
   -137.00      0.6213      0.6213
   -136.00      0.6453      0.6453
   -135.00      0.6693      0.6693
   -134.00      0.6933      0.6933
   -133.00      0.7174      0.7174
   -132.00      0.7414      0.7414
   -131.00      0.7652      0.7652
   -130.00      0.7889      0.7889
   -129.00      0.8125      0.8125
   -128.00      0.8359      0.8359
   -127.00      0.8592      0.8592
   -126.00      0.8822      0.8822
   -125.00      0.9052      0.9052
   -124.00      0.9279      0.9279
   -123.00      0.9502      0.9502
   -122.00      0.9720      0.9720
   -121.00      0.9933      0.9933
   -120.00      1.0143      1.0143
   -119.00      1.0348      1.0348
   -118.00      1.0550      1.0550
   -117.00      1.0747      1.0747
   -116.00      1.0941      1.0941
   -115.00      1.1130      1.1130
   -114.00      1.1314      1.1314
   -113.00      1.1494      1.1494
   -112.00      1.1668      1.1668
   -111.00      1.1834      1.1834
   -110.00      1.1991      1.1991
   -109.00      1.2141      1.2141
   -108.00      1.2284      1.2284
   -107.00      1.2423      1.2423
   -106.00      1.2555      1.2555
   -105.00      1.2682      1.2682
   -104.00      1.2803      1.2803
   -103.00      1.2919      1.2919
   -102.00      1.3025      1.3025
   -101.00      1.3121      1.3121
   -100.00      1.3209      1.3209
    -99.00      1.3288      1.3288
    -98.00      1.3357      1.3357
    -97.00      1.3420      1.3420
    -96.00      1.3475      1.3475
    -95.00      1.3524      1.3524
    -94.00      1.3567      1.3567
    -93.00      1.3600      1.3600
    -92.00      1.3628      1.3628
    -91.00      1.3652      1.3652
    -90.00      1.3662      1.3662
    -89.00      1.3652      1.3652
    -88.00      1.3628      1.3628
    -87.00      1.3600      1.3600
    -86.00      1.3567      1.3567
    -85.00      1.3524      1.3524
    -84.00      1.3475      1.3475
    -83.00      1.3420      1.3420
    -82.00      1.3357      1.3357
    -81.00      1.3288      1.3288
    -80.00      1.3209      1.3209
    -79.00      1.3121      1.3121
    -78.00      1.3025      1.3025
    -77.00      1.2919      1.2919
    -76.00      1.2803      1.2803
    -75.00      1.2682      1.2682
    -74.00      1.2555      1.2555
    -73.00      1.2423      1.2423
    -72.00      1.2284      1.2284
    -71.00      1.2141      1.2141
    -70.00      1.1991      1.1991
    -69.00      1.1834      1.1834
    -68.00      1.1668      1.1668
    -67.00      1.1494      1.1494
    -66.00      1.1314      1.1314
    -65.00      1.1130      1.1130
    -64.00      1.0941      1.0941
    -63.00      1.0747      1.0747
    -62.00      1.0550      1.0550
    -61.00      1.0348      1.0348
    -60.00      1.0143      1.0143
    -59.00      0.9933      0.9933
    -58.00      0.9720      0.9720
    -57.00      0.9502      0.9502
    -56.00      0.9279      0.9279
    -55.00      0.9052      0.9052
    -54.00      0.8822      0.8822
    -53.00      0.8592      0.8592
    -52.00      0.8359      0.8359
    -51.00      0.8125      0.8125
    -50.00      0.7889      0.7889
    -49.00      0.7652      0.7652
    -48.00      0.7414      0.7414
    -47.00      0.7174      0.7174
    -46.00      0.6933      0.6933
    -45.00      0.6693      0.6693
    -44.00      0.6453      0.6453
    -43.00      0.6213      0.6213
    -42.00      0.5974      0.5974
    -41.00      0.5736      0.5736
    -40.00      0.5499      0.5499
    -39.00      0.5263      0.5263
    -38.00      0.5027      0.5027
    -37.00      0.4794      0.4794
    -36.00      0.4563      0.4563
    -35.00      0.4347      0.4347
    -34.00      0.4134      0.4134
    -33.00      0.3894      0.3894
    -32.00      0.3605      0.3605
    -31.00      0.3277      0.3277
    -30.00      0.2930      0.2930
    -29.00      0.2557      0.2557
    -28.00      0.2205      0.2205
    -27.00      0.2037      0.2037
    -26.00      0.1891      0.1891
    -25.00      0.1742      0.1742
    -24.00      0.1595      0.1595
    -23.00      0.1463      0.1463
    -22.00      0.1331      0.1331
    -21.00      0.1198      0.1198
    -20.00      0.1070      0.1070
    -19.00      0.0963      0.0963
    -18.00      0.0860      0.0860
    -17.00      0.0767      0.0767
    -16.00      0.0674      0.0674
    -15.00      0.0574      0.0574
    -14.00      0.0475      0.0475
    -13.00      0.0392      0.0392
    -12.00      0.0313      0.0313
    -11.00      0.0256      0.0256
    -10.00      0.0203      0.0203
     -9.00      0.0178      0.0178
     -8.00      0.0154      0.0154
     -7.00      0.0138      0.0138
     -6.00      0.0124      0.0124
     -5.00      0.0116      0.0116
     -4.00      0.0109      0.0109
     -3.00      0.0105      0.0105
     -2.00      0.0103      0.0103
     -1.00      0.0101      0.0101
      0.00      0.0101      0.0101
      1.00      0.0102      0.0102
      2.00      0.0104      0.0104
      3.00      0.0106      0.0106
      4.00      0.0109      0.0109
      5.00      0.0113      0.0113
      6.00      0.0118      0.0118
      7.00      0.0123      0.0123
      8.00      0.0130      0.0130
      9.00      0.0139      0.0139
     10.00      0.0149      0.0149
     11.00      0.0163      0.0163
     12.00      0.0181      0.0181
     13.00      0.0206      0.0206
     14.00      0.0248      0.0248
     15.00      0.0325      0.0325
     16.00      0.0426      0.0426
     17.00      0.0587      0.0587
     18.00      0.0752      0.0752
     19.00      0.0957      0.0957
     20.00      0.1165      0.1165
     21.00      0.1374      0.1374
     22.00      0.1583      0.1583
     23.00      0.1792      0.1792
     24.00      0.2002      0.2002
     25.00      0.2199      0.2199
     26.00      0.2396      0.2396
     27.00      0.2588      0.2588
     28.00      0.2784      0.2784
     29.00      0.3004      0.3004
     30.00      0.3226      0.3226
     31.00      0.3449      0.3449
     32.00      0.3671      0.3671
     33.00      0.3894      0.3894
     34.00      0.4116      0.4116
     35.00      0.4338      0.4338
     36.00      0.4563      0.4563
     37.00      0.4794      0.4794
     38.00      0.5027      0.5027
     39.00      0.5263      0.5263
     40.00      0.5499      0.5499
     41.00      0.5736      0.5736
     42.00      0.5974      0.5974
     43.00      0.6213      0.6213
     44.00      0.6453      0.6453
     45.00      0.6693      0.6693
     46.00      0.6933      0.6933
     47.00      0.7174      0.7174
     48.00      0.7414      0.7414
     49.00      0.7652      0.7652
     50.00      0.7889      0.7889
     51.00      0.8125      0.8125
     52.00      0.8359      0.8359
     53.00      0.8592      0.8592
     54.00      0.8822      0.8822
     55.00      0.9052      0.9052
     56.00      0.9279      0.9279
     57.00      0.9502      0.9502
     58.00      0.9720      0.9720
     59.00      0.9933      0.9933
     60.00      1.0143      1.0143
     61.00      1.0348      1.0348
     62.00      1.0550      1.0550
     63.00      1.0747      1.0747
     64.00      1.0941      1.0941
     65.00      1.1130      1.1130
     66.00      1.1314      1.1314
     67.00      1.1494      1.1494
     68.00      1.1668      1.1668
     69.00      1.1834      1.1834
     70.00      1.1991      1.1991
     71.00      1.2141      1.2141
     72.00      1.2284      1.2284
     73.00      1.2423      1.2423
     74.00      1.2555      1.2555
     75.00      1.2682      1.2682
     76.00      1.2803      1.2803
     77.00      1.2919      1.2919
     78.00      1.3025      1.3025
     79.00      1.3121      1.3121
     80.00      1.3209      1.3209
     81.00      1.3288      1.3288
     82.00      1.3357      1.3357
     83.00      1.3420      1.3420
     84.00      1.3475      1.3475
     85.00      1.3524      1.3524
     86.00      1.3567      1.3567
     87.00      1.3600      1.3600
     88.00      1.3628      1.3628
     89.00      1.3652      1.3652
     90.00      1.3662      1.3662
     91.00      1.3652      1.3652
     92.00      1.3628      1.3628
     93.00      1.3600      1.3600
     94.00      1.3567      1.3567
     95.00      1.3524      1.3524
     96.00      1.3475      1.3475
     97.00      1.3420      1.3420
     98.00      1.3357      1.3357
     99.00      1.3288      1.3288
    100.00      1.3209      1.3209
    101.00      1.3121      1.3121
    102.00      1.3025      1.3025
    103.00      1.2919      1.2919
    104.00      1.2803      1.2803
    105.00      1.2682      1.2682
    106.00      1.2555      1.2555
    107.00      1.2423      1.2423
    108.00      1.2284      1.2284
    109.00      1.2141      1.2141
    110.00      1.1991      1.1991
    111.00      1.1834      1.1834
    112.00      1.1668      1.1668
    113.00      1.1494      1.1494
    114.00      1.1314      1.1314
    115.00      1.1130      1.1130
    116.00      1.0941      1.0941
    117.00      1.0747      1.0747
    118.00      1.0550      1.0550
    119.00      1.0348      1.0348
    120.00      1.0143      1.0143
    121.00      0.9933      0.9933
    122.00      0.9720      0.9720
    123.00      0.9502      0.9502
    124.00      0.9279      0.9279
    125.00      0.9052      0.9052
    126.00      0.8822      0.8822
    127.00      0.8592      0.8592
    128.00      0.8359      0.8359
    129.00      0.8125      0.8125
    130.00      0.7889      0.7889
    131.00      0.7652      0.7652
    132.00      0.7414      0.7414
    133.00      0.7174      0.7174
    134.00      0.6933      0.6933
    135.00      0.6693      0.6693
    136.00      0.6453      0.6453
    137.00      0.6213      0.6213
    138.00      0.5974      0.5974
    139.00      0.5736      0.5736
    140.00      0.5499      0.5499
    141.00      0.5263      0.5263
    142.00      0.5027      0.5027
    143.00      0.4794      0.4794
    144.00      0.4563      0.4563
    145.00      0.4337      0.4337
    146.00      0.4114      0.4114
    147.00      0.3894      0.3894
    148.00      0.3675      0.3675
    149.00      0.3459      0.3459
    150.00      0.3248      0.3248
    151.00      0.3042      0.3042
    152.00      0.2840      0.2840
    153.00      0.2644      0.2644
    154.00      0.2453      0.2453
    155.00      0.2266      0.2266
    156.00      0.2085      0.2085
    157.00      0.1909      0.1909
    158.00      0.1739      0.1739
    159.00      0.1574      0.1574
    160.00      0.1417      0.1417
    161.00      0.1265      0.1265
    162.00      0.1120      0.1120
    163.00      0.0983      0.0983
    164.00      0.0852      0.0852
    165.00      0.0729      0.0729
    166.00      0.0605      0.0605
    167.00      0.0488      0.0488
    168.00      0.0402      0.0402
    169.00      0.0347      0.0347
    170.00      0.0304      0.0304
    171.00      0.0273      0.0273
    172.00      0.0252      0.0252
    173.00      0.0234      0.0234
    174.00      0.0220      0.0220
    175.00      0.0207      0.0207
    176.00      0.0195      0.0195
    177.00      0.0187      0.0187
    178.00      0.0182      0.0182
    179.00      0.0177      0.0177
    180.00      0.0175      0.0175
                0.0000      1.0000
   -180.00      0.0000      0.0000
   -179.00      0.0400      0.0400
   -178.00      0.0800      0.0800
   -177.00      0.1200      0.1200
   -176.00      0.1600      0.1600
   -175.00      0.2000      0.2000
   -174.00      0.2400      0.2400
   -173.00      0.2845      0.2845
   -172.00      0.3290      0.3290
   -171.00      0.3600      0.3600
   -170.00      0.3789      0.3789
   -169.00      0.3934      0.3934
   -168.00      0.3991      0.3991
   -167.00      0.3989      0.3989
   -166.00      0.3984      0.3984
   -165.00      0.3978      0.3978
   -164.00      0.3973      0.3973
   -163.00      0.3968      0.3968
   -162.00      0.3965      0.3965
   -161.00      0.3975      0.3975
   -160.00      0.3999      0.3999
   -159.00      0.4031      0.4031
   -158.00      0.4087      0.4087
   -157.00      0.4170      0.4170
   -156.00      0.4254      0.4254
   -155.00      0.4329      0.4329
   -154.00      0.4404      0.4404
   -153.00      0.4476      0.4476
   -152.00      0.4559      0.4559
   -151.00      0.4638      0.4638
   -150.00      0.4674      0.4674
   -149.00      0.4665      0.4665
   -148.00      0.4645      0.4645
   -147.00      0.4623      0.4623
   -146.00      0.4600      0.4600
   -145.00      0.4573      0.4573
   -144.00      0.4547      0.4547
   -143.00      0.4522      0.4522
   -142.00      0.4497      0.4497
   -141.00      0.4475      0.4475
   -140.00      0.4458      0.4458
   -139.00      0.4443      0.4443
   -138.00      0.4429      0.4429
   -137.00      0.4417      0.4417
   -136.00      0.4406      0.4406
   -135.00      0.4395      0.4395
   -134.00      0.4382      0.4382
   -133.00      0.4370      0.4370
   -132.00      0.4362      0.4362
   -131.00      0.4359      0.4359
   -130.00      0.4357      0.4357
   -129.00      0.4356      0.4356
   -128.00      0.4357      0.4357
   -127.00      0.4360      0.4360
   -126.00      0.4363      0.4363
   -125.00      0.4368      0.4368
   -124.00      0.4374      0.4374
   -123.00      0.4381      0.4381
   -122.00      0.4387      0.4387
   -121.00      0.4393      0.4393
   -120.00      0.4399      0.4399
   -119.00      0.4406      0.4406
   -118.00      0.4412      0.4412
   -117.00      0.4419      0.4419
   -116.00      0.4426      0.4426
   -115.00      0.4432      0.4432
   -114.00      0.4439      0.4439
   -113.00      0.4447      0.4447
   -112.00      0.4455      0.4455
   -111.00      0.4459      0.4459
   -110.00      0.4459      0.4459
   -109.00      0.4459      0.4459
   -108.00      0.4459      0.4459
   -107.00      0.4458      0.4458
   -106.00      0.4456      0.4456
   -105.00      0.4454      0.4454
   -104.00      0.4451      0.4451
   -103.00      0.4448      0.4448
   -102.00      0.4444      0.4444
   -101.00      0.4438      0.4438
   -100.00      0.4430      0.4430
    -99.00      0.4420      0.4420
    -98.00      0.4408      0.4408
    -97.00      0.4393      0.4393
    -96.00      0.4377      0.4377
    -95.00      0.4361      0.4361
    -94.00      0.4345      0.4345
    -93.00      0.4329      0.4329
    -92.00      0.4314      0.4314
    -91.00      0.4299      0.4299
    -90.00      0.4280      0.4280
    -89.00      0.4252      0.4252
    -88.00      0.4215      0.4215
    -87.00      0.4178      0.4178
    -86.00      0.4144      0.4144
    -85.00      0.4110      0.4110
    -84.00      0.4075      0.4075
    -83.00      0.4040      0.4040
    -82.00      0.4005      0.4005
    -81.00      0.3968      0.3968
    -80.00      0.3929      0.3929
    -79.00      0.3889      0.3889
    -78.00      0.3847      0.3847
    -77.00      0.3805      0.3805
    -76.00      0.3760      0.3760
    -75.00      0.3716      0.3716