IEA-15-240-RWT_AeroDyn15_Polar_03; 2 361 2 361 2 361
                0.0000      1.0000
   -180.00      0.0001      0.0001
   -179.00      0.0190      0.0190
   -178.00      0.0381      0.0381
   -177.00      0.0572      0.0572
   -176.00      0.0766      0.0766
   -175.00      0.0960      0.0960
   -174.00      0.1154      0.1154
   -173.00      0.1348      0.1348
   -172.00      0.1543      0.1543
   -171.00      0.1736      0.1736
   -170.00      0.1930      0.1930
   -169.00      0.2123      0.2123
   -168.00      0.2316      0.2316
   -167.00      0.2509      0.2509
   -166.00      0.2702      0.2702
   -165.00      0.2895      0.2895
   -164.00      0.3100      0.3100
   -163.00      0.3304      0.3304
   -162.00      0.3474      0.3474
   -161.00      0.3622      0.3622
   -160.00      0.3750      0.3750
   -159.00      0.3805      0.3805
   -158.00      0.3775      0.3775
   -157.00      0.3708      0.3708
   -156.00      0.3641      0.3641
   -155.00      0.3587      0.3587
   -154.00      0.3532      0.3532
   -153.00      0.3478      0.3478
   -152.00      0.3430      0.3430
   -151.00      0.3383      0.3383
   -150.00      0.3314      0.3314
   -149.00      0.3124      0.3124
   -148.00      0.2845      0.2845
   -147.00      0.2657      0.2657
   -146.00      0.2592      0.2592
   -145.00      0.2548      0.2548
   -144.00      0.2501      0.2501
   -143.00      0.2438      0.2438
   -142.00      0.2369      0.2369
   -141.00      0.2307      0.2307
   -140.00      0.2255      0.2255
   -139.00      0.2206      0.2206
   -138.00      0.2160      0.2160
   -137.00      0.2117      0.2117
   -136.00      0.2075      0.2075
   -135.00      0.2033      0.2033
   -134.00      0.1989      0.1989
   -133.00      0.1944      0.1944
   -132.00      0.1899      0.1899
   -131.00      0.1854      0.1854
   -130.00      0.1810      0.1810
   -129.00      0.1765      0.1765
   -128.00      0.1720      0.1720
   -127.00      0.1676      0.1676
   -126.00      0.1632      0.1632
   -125.00      0.1588      0.1588
   -124.00      0.1545      0.1545
   -123.00      0.1502      0.1502
   -122.00      0.1460      0.1460
   -121.00      0.1419      0.1419
   -120.00      0.1377      0.1377
   -119.00      0.1331      0.1331
   -118.00      0.1282      0.1282
   -117.00      0.1235      0.1235
   -116.00      0.1188      0.1188
   -115.00      0.1142      0.1142
   -114.00      0.1096      0.1096
   -113.00      0.1051      0.1051
   -112.00      0.1006      0.1006
   -111.00      0.0961      0.0961
   -110.00      0.0916      0.0916
   -109.00      0.0870      0.0870
   -108.00      0.0823      0.0823
   -107.00      0.0777      0.0777
   -106.00      0.0730      0.0730
   -105.00      0.0683      0.0683
   -104.00      0.0635      0.0635
   -103.00      0.0588      0.0588
   -102.00      0.0542      0.0542
   -101.00      0.0495      0.0495
   -100.00      0.0450      0.0450
    -99.00      0.0405      0.0405
    -98.00      0.0362      0.0362
    -97.00      0.0320      0.0320
    -96.00      0.0277      0.0277
    -95.00      0.0233      0.0233
    -94.00      0.0188      0.0188
    -93.00      0.0142      0.0142
    -92.00      0.0096      0.0096
    -91.00      0.0048      0.0048
    -90.00      0.0001      0.0001
    -89.00     -0.0047     -0.0047
    -88.00     -0.0094     -0.0094
    -87.00     -0.0141     -0.0141
    -86.00     -0.0187     -0.0187
    -85.00     -0.0231     -0.0231
    -84.00     -0.0275     -0.0275
    -83.00     -0.0318     -0.0318
    -82.00     -0.0361     -0.0361
    -81.00     -0.0404     -0.0404
    -80.00     -0.0448     -0.0448
    -79.00     -0.0494     -0.0494
    -78.00     -0.0540     -0.0540
    -77.00     -0.0587     -0.0587
    -76.00     -0.0634     -0.0634
    -75.00     -0.0681     -0.0681
    -74.00     -0.0728     -0.0728
    -73.00     -0.0775     -0.0775
    -72.00     -0.0822     -0.0822
    -71.00     -0.0868     -0.0868
    -70.00     -0.0914     -0.0914
    -69.00     -0.0960     -0.0960
    -68.00     -0.1005     -0.1005
    -67.00     -0.1049     -0.1049
    -66.00     -0.1094     -0.1094
    -65.00     -0.1140     -0.1140
    -64.00     -0.1186     -0.1186
    -63.00     -0.1233     -0.1233
    -62.00     -0.1280     -0.1280
    -61.00     -0.1329     -0.1329
    -60.00     -0.1375     -0.1375
    -59.00     -0.1417     -0.1417
    -58.00     -0.1458     -0.1458
    -57.00     -0.1500     -0.1500
    -56.00     -0.1543     -0.1543
    -55.00     -0.1586     -0.1586
    -54.00     -0.1630     -0.1630
    -53.00     -0.1675     -0.1675
    -52.00     -0.1719     -0.1719
    -51.00     -0.1764     -0.1764
    -50.00     -0.1808     -0.1808
    -49.00     -0.1853     -0.1853
    -48.00     -0.1898     -0.1898
    -47.00     -0.1943     -0.1943
    -46.00     -0.1988     -0.1988
    -45.00     -0.2032     -0.2032
    -44.00     -0.2074     -0.2074
    -43.00     -0.2115     -0.2115
    -42.00     -0.2159     -0.2159
    -41.00     -0.2205     -0.2205
    -40.00     -0.2253     -0.2253
    -39.00     -0.2306     -0.2306
    -38.00     -0.2368     -0.2368
    -37.00     -0.2436     -0.2436
    -36.00     -0.2500     -0.2500
    -35.00     -0.2557     -0.2557
    -34.00     -0.2611     -0.2611
    -33.00     -0.2656     -0.2656
    -32.00     -0.2698     -0.2698
    -31.00     -0.2735     -0.2735
    -30.00     -0.2750     -0.2750
    -29.00     -0.2670     -0.2670
    -28.00     -0.2610     -0.2610
    -27.00     -0.2709     -0.2709
    -26.00     -0.2829     -0.2829
    -25.00     -0.2951     -0.2951
    -24.00     -0.3077     -0.3077
    -23.00     -0.3221     -0.3221
    -22.00     -0.3369     -0.3369
    -21.00     -0.3482     -0.3482
    -20.00     -0.3566     -0.3566
    -19.00     -0.3462     -0.3462
    -18.00     -0.3425     -0.3425
    -17.00     -0.3399     -0.3399
    -16.00     -0.3299     -0.3299
    -15.00     -0.3234     -0.3234
    -14.00     -0.3074     -0.3074
    -13.00     -0.2954     -0.2954
    -12.00     -0.2738     -0.2738
    -11.00     -0.2511     -0.2511
    -10.00     -0.2406     -0.2406
     -9.00     -0.2112     -0.2112
     -8.00     -0.1595     -0.1595
     -7.00     -0.1144     -0.1144
     -6.00     -0.0681     -0.0681
     -5.00     -0.0238     -0.0238
     -4.00     -0.0025     -0.0025
     -3.00      0.0335      0.0335
     -2.00      0.0700      0.0700
     -1.00      0.0945      0.0945
      0.00      0.1159      0.1159
      1.00      0.1435      0.1435
      2.00      0.1727      0.1727
      3.00      0.2019      0.2019
      4.00      0.2311      0.2311
      5.00      0.2605      0.2605
      6.00      0.2899      0.2899
      7.00      0.3194      0.3194
      8.00      0.3491      0.3491
      9.00      0.3791      0.3791
     10.00      0.4004      0.4004
     11.00      0.4197      0.4197
     12.00      0.4312      0.4312
     13.00      0.4576      0.4576
     14.00      0.4935      0.4935
     15.00      0.5199      0.5199
     16.00      0.5407      0.5407
     17.00      0.5695      0.5695
     18.00      0.5795      0.5795
     19.00      0.5811      0.5811
     20.00      0.5811      0.5811
     21.00      0.5687      0.5687
     22.00      0.5630      0.5630
     23.00      0.5656      0.5656
     24.00      0.5694      0.5694
     25.00      0.5526      0.5526
     26.00      0.5279      0.5279
     27.00      0.5029      0.5029
     28.00      0.4767      0.4767
     29.00      0.4452      0.4452
     30.00      0.4188      0.4188
     31.00      0.4000      0.4000
     32.00      0.3837      0.3837
     33.00      0.3716      0.3716
     34.00      0.3636      0.3636
     35.00      0.3574      0.3574
     36.00      0.3507      0.3507
     37.00      0.3421      0.3421
     38.00      0.3328      0.3328
     39.00      0.3244      0.3244
     40.00      0.3176      0.3176
     41.00      0.3115      0.3115
     42.00      0.3055      0.3055
     43.00      0.2998      0.2998
     44.00      0.2942      0.2942
     45.00      0.2885      0.2885
     46.00      0.2826      0.2826
     47.00      0.2766      0.2766
     48.00      0.2706      0.2706
     49.00      0.2645      0.2645
     50.00      0.2583      0.2583
     51.00      0.2521      0.2521
     52.00      0.2458      0.2458
     53.00      0.2395      0.2395
     54.00      0.2331      0.2331
     55.00      0.2269      0.2269
     56.00      0.2206      0.2206
     57.00      0.2145      0.2145
     58.00      0.2086      0.2086
     59.00      0.2028      0.2028
     60.00      0.1967      0.1967
     61.00      0.1901      0.1901
     62.00      0.1832      0.1832
     63.00      0.1764      0.1764
     64.00      0.1697      0.1697
     65.00      0.1631      0.1631
     66.00      0.1566      0.1566
     67.00      0.1501      0.1501
     68.00      0.1438      0.1438
     69.00      0.1373      0.1373
     70.00      0.1308      0.1308
     71.00      0.1242      0.1242
     72.00      0.1176      0.1176
     73.00      0.1109      0.1109
     74.00      0.1042      0.1042
     75.00      0.0975      0.0975
     76.00      0.0908      0.0908
     77.00      0.0840      0.0840
     78.00      0.0774      0.0774
     79.00      0.0708      0.0708
     80.00      0.0643      0.0643
     81.00      0.0579      0.0579
     82.00      0.0517      0.0517
     83.00      0.0457      0.0457
     84.00      0.0395      0.0395
     85.00      0.0332      0.0332
     86.00      0.0268      0.0268
     87.00      0.0203      0.0203
     88.00      0.0134      0.0134
     89.00      0.0063      0.0063
     90.00      0.0001      0.0001
     91.00     -0.0051     -0.0051
     92.00     -0.0096     -0.0096
     93.00     -0.0141     -0.0141
     94.00     -0.0187     -0.0187
     95.00     -0.0231     -0.0231
     96.00     -0.0275     -0.0275
     97.00     -0.0318     -0.0318
     98.00     -0.0361     -0.0361
     99.00     -0.0404     -0.0404
    100.00     -0.0448     -0.0448
    101.00     -0.0494     -0.0494
    102.00     -0.0540     -0.0540
    103.00     -0.0587     -0.0587
    104.00     -0.0634     -0.0634
    105.00     -0.0681     -0.0681
    106.00     -0.0728     -0.0728
    107.00     -0.0775     -0.0775
    108.00     -0.0822     -0.0822
    109.00     -0.0868     -0.0868
    110.00     -0.0914     -0.0914
    111.00     -0.0960     -0.0960
    112.00     -0.1005     -0.1005
    113.00     -0.1049     -0.1049
    114.00     -0.1094     -0.1094
    115.00     -0.1140     -0.1140
    116.00     -0.1186     -0.1186
    117.00     -0.1233     -0.1233
    118.00     -0.1280     -0.1280
    119.00     -0.1329     -0.1329
    120.00     -0.1375     -0.1375
    121.00     -0.1417     -0.1417
    122.00     -0.1458     -0.1458
    123.00     -0.1500     -0.1500
    124.00     -0.1543     -0.1543
    125.00     -0.1586     -0.1586
    126.00     -0.1630     -0.1630
    127.00     -0.1675     -0.1675
    128.00     -0.1719     -0.1719
    129.00     -0.1764     -0.1764
    130.00     -0.1808     -0.1808
    131.00     -0.1853     -0.1853
    132.00     -0.1898     -0.1898
    133.00     -0.1943     -0.1943
    134.00     -0.1988     -0.1988
    135.00     -0.2032     -0.2032
    136.00     -0.2074     -0.2074
    137.00     -0.2115     -0.2115
    138.00     -0.2159     -0.2159
    139.00     -0.2205     -0.2205
    140.00     -0.2253     -0.2253
    141.00     -0.2306     -0.2306
    142.00     -0.2368     -0.2368
    143.00     -0.2436     -0.2436
    144.00     -0.2500     -0.2500
    145.00     -0.2547     -0.2547
    146.00     -0.2591     -0.2591
    147.00     -0.2656     -0.2656
    148.00     -0.2844     -0.2844
    149.00     -0.3122     -0.3122
    150.00     -0.3313     -0.3313
    151.00     -0.3382     -0.3382
    152.00     -0.3429     -0.3429
    153.00     -0.3476     -0.3476
    154.00     -0.3531     -0.3531
    155.00     -0.3585     -0.3585
    156.00     -0.3640     -0.3640
    157.00     -0.3707     -0.3707
    158.00     -0.3773     -0.3773
    159.00     -0.3804     -0.3804
    160.00     -0.3749     -0.3749
    161.00     -0.3621     -0.3621
    162.00     -0.3472     -0.3472
    163.00     -0.3303     -0.3303
    164.00     -0.3098     -0.3098
    165.00     -0.2893     -0.2893
    166.00     -0.2700     -0.2700
    167.00     -0.2507     -0.2507
    168.00     -0.2314     -0.2314
    169.00     -0.2121     -0.2121
    170.00     -0.1928     -0.1928
    171.00     -0.1734     -0.1734
    172.00     -0.1541     -0.1541
    173.00     -0.1347     -0.1347
    174.00     -0.1153     -0.1153
    175.00     -0.0958     -0.0958
    176.00     -0.0764     -0.0764
    177.00     -0.0571     -0.0571
    178.00     -0.0379     -0.0379
    179.00     -0.0189     -0.0189
    180.00      0.0001      0.0001
                0.0000      1.0000
   -180.00      0.2848      0.2848
   -179.00      0.2847      0.2847
   -178.00      0.2845      0.2845
   -177.00      0.2843      0.2843
   -176.00      0.2839      0.2839
   -175.00      0.2835      0.2835
   -174.00      0.2829      0.2829
   -173.00      0.2820      0.2820
   -172.00      0.2811      0.2811
   -171.00      0.2806      0.2806
   -170.00      0.2814      0.2814
   -169.00      0.2829      0.2829
   -168.00      0.2838      0.2838
   -167.00      0.2839      0.2839
   -166.00      0.2839      0.2839
   -165.00      0.2840      0.2840
   -164.00      0.2819      0.2819
   -163.00      0.2782      0.2782
   -162.00      0.2761      0.2761
   -161.00      0.2762      0.2762
   -160.00      0.2765      0.2765
   -159.00      0.2769      0.2769
   -158.00      0.2804      0.2804
   -157.00      0.2872      0.2872
   -156.00      0.2940      0.2940
   -155.00      0.2993      0.2993
   -154.00      0.3044      0.3044
   -153.00      0.3094      0.3094
   -152.00      0.3138      0.3138
   -151.00      0.3180      0.3180
   -150.00      0.3233      0.3233
   -149.00      0.3318      0.3318
   -148.00      0.3422      0.3422
   -147.00      0.3501      0.3501
   -146.00      0.3542      0.3542
   -145.00      0.3572      0.3572
   -144.00      0.3609      0.3609
   -143.00      0.3660      0.3660
   -142.00      0.3721      0.3721
   -141.00      0.3783      0.3783
   -140.00      0.3846      0.3846
   -139.00      0.3911      0.3911
   -138.00      0.3978      0.3978
   -137.00      0.4045      0.4045
   -136.00      0.4113      0.4113
   -135.00      0.4181      0.4181
   -134.00      0.4249      0.4249
   -133.00      0.4317      0.4317
   -132.00      0.4385      0.4385
   -131.00      0.4452      0.4452
   -130.00      0.4519      0.4519
   -129.00      0.4585      0.4585
   -128.00      0.4649      0.4649
   -127.00      0.4711      0.4711
   -126.00      0.4774      0.4774
   -125.00      0.4839      0.4839
   -124.00      0.4904      0.4904
   -123.00      0.4972      0.4972
   -122.00      0.5045      0.5045
   -121.00      0.5121      0.5121
   -120.00      0.5188      0.5188
   -119.00      0.5241      0.5241
   -118.00      0.5287      0.5287
   -117.00      0.5336      0.5336
   -116.00      0.5388      0.5388
   -115.00      0.5443      0.5443
   -114.00      0.5501      0.5501
   -113.00      0.5564      0.5564
   -112.00      0.5630      0.5630
   -111.00      0.5689      0.5689
   -110.00      0.5737      0.5737
   -109.00      0.5779      0.5779
   -108.00      0.5820      0.5820
   -107.00      0.5857      0.5857
   -106.00      0.5893      0.5893
   -105.00      0.5931      0.5931
   -104.00      0.5975      0.5975
   -103.00      0.6022      0.6022
   -102.00      0.6068      0.6068
   -101.00      0.6113      0.6113
   -100.00      0.6157      0.6157
    -99.00      0.6188      0.6188
    -98.00      0.6204      0.6204
    -97.00      0.6216      0.6216
    -96.00      0.6231      0.6231
    -95.00      0.6252      0.6252
    -94.00      0.6277      0.6277
    -93.00      0.6305      0.6305
    -92.00      0.6345      0.6345
    -91.00      0.6389      0.6389
    -90.00      0.6410      0.6410
    -89.00      0.6389      0.6389
    -88.00      0.6345      0.6345
    -87.00      0.6305      0.6305
    -86.00      0.6277      0.6277
    -85.00      0.6252      0.6252
    -84.00      0.6231      0.6231
    -83.00      0.6216      0.6216
    -82.00      0.6204      0.6204
    -81.00      0.6188      0.6188
    -80.00      0.6157      0.6157
    -79.00      0.6113      0.6113
    -78.00      0.6068      0.6068
    -77.00      0.6023      0.6023
    -76.00      0.5975      0.5975
    -75.00      0.5931      0.5931
    -74.00      0.5893      0.5893
    -73.00      0.5857      0.5857
    -72.00      0.5820      0.5820
    -71.00      0.5779      0.5779
    -70.00      0.5737      0.5737
    -69.00      0.5689      0.5689
    -68.00      0.5630      0.5630
    -67.00      0.5564      0.5564
    -66.00      0.5501      0.5501
    -65.00      0.5443      0.5443
    -64.00      0.5388      0.5388
    -63.00      0.5336      0.5336
    -62.00      0.5287      0.5287
    -61.00      0.5241      0.5241
    -60.00      0.5188      0.5188
    -59.00      0.5121      0.5121
    -58.00      0.5045      0.5045
    -57.00      0.4972      0.4972
    -56.00      0.4904      0.4904
    -55.00      0.4839      0.4839
    -54.00      0.4774      0.4774
    -53.00      0.4711      0.4711
    -52.00      0.4649      0.4649
    -51.00      0.4585      0.4585
    -50.00      0.4519      0.4519
    -49.00      0.4452      0.4452
    -48.00      0.4385      0.4385
    -47.00      0.4317      0.4317
    -46.00      0.4249      0.4249
    -45.00      0.4181      0.4181
    -44.00      0.4113      0.4113
    -43.00      0.4045      0.4045
    -42.00      0.3978      0.3978
    -41.00      0.3911      0.3911
    -40.00      0.3846      0.3846
    -39.00      0.3783      0.3783
    -38.00      0.3721      0.3721
    -37.00      0.3660      0.3660
    -36.00      0.3609      0.3609
    -35.00      0.3570      0.3570
    -34.00      0.3537      0.3537
    -33.00      0.3501      0.3501
    -32.00      0.3450      0.3450
    -31.00      0.3397      0.3397
    -30.00      0.3372      0.3372
    -29.00      0.3423      0.3423
    -28.00      0.3453      0.3453
    -27.00      0.3419      0.3419
    -26.00      0.3368      0.3368
    -25.00      0.3317      0.3317
    -24.00      0.3266      0.3266
    -23.00      0.3208      0.3208
    -22.00      0.3149      0.3149
    -21.00      0.3089      0.3089
    -20.00      0.3029      0.3029
    -19.00      0.3016      0.3016
    -18.00      0.2997      0.2997
    -17.00      0.2980      0.2980
    -16.00      0.2972      0.2972
    -15.00      0.2957      0.2957
    -14.00      0.2952      0.2952
    -13.00      0.2941      0.2941
    -12.00      0.2938      0.2938
    -11.00      0.2932      0.2932
    -10.00      0.2923      0.2923
     -9.00      0.2921      0.2921
     -8.00      0.2923      0.2923
     -7.00      0.2926      0.2926
     -6.00      0.2929      0.2929
     -5.00      0.2932      0.2932
     -4.00      0.2936      0.2936
     -3.00      0.2937      0.2937
     -2.00      0.2940      0.2940
     -1.00      0.2942      0.2942
      0.00      0.2943      0.2943
      1.00      0.2944      0.2944
      2.00      0.2945      0.2945
      3.00      0.2946      0.2946
      4.00      0.2946      0.2946
      5.00      0.2947      0.2947
      6.00      0.2947      0.2947
      7.00      0.2948      0.2948
      8.00      0.2947      0.2947
      9.00      0.2946      0.2946
     10.00      0.2945      0.2945
     11.00      0.2938      0.2938
     12.00      0.2930      0.2930
     13.00      0.2914      0.2914
     14.00      0.2895      0.2895
     15.00      0.2886      0.2886
     16.00      0.2884      0.2884
     17.00      0.2882      0.2882
     18.00      0.2895      0.2895
     19.00      0.2904      0.2904
     20.00      0.2915      0.2915
     21.00      0.2935      0.2935
     22.00      0.2944      0.2944
     23.00      0.2947      0.2947
     24.00      0.2956      0.2956
     25.00      0.2991      0.2991
     26.00      0.3047      0.3047
     27.00      0.3103      0.3103
     28.00      0.3159      0.3159
     29.00      0.3214      0.3214
     30.00      0.3279      0.3279
     31.00      0.3356      0.3356
     32.00      0.3436      0.3436
     33.00      0.3505      0.3505
     34.00      0.3559      0.3559
     35.00      0.3605      0.3605
     36.00      0.3654      0.3654
     37.00      0.3707      0.3707
     38.00      0.3763      0.3763
     39.00      0.3820      0.3820
     40.00      0.3881      0.3881
     41.00      0.3944      0.3944
     42.00      0.4008      0.4008
     43.00      0.4072      0.4072
     44.00      0.4136      0.4136
     45.00      0.4200      0.4200
     46.00      0.4265      0.4265
     47.00      0.4329      0.4329
     48.00      0.4393      0.4393
     49.00      0.4457      0.4457
     50.00      0.4521      0.4521
     51.00      0.4585      0.4585
     52.00      0.4648      0.4648
     53.00      0.4711      0.4711
     54.00      0.4774      0.4774
     55.00      0.4839      0.4839
     56.00      0.4904      0.4904
     57.00      0.4972      0.4972
     58.00      0.5045      0.5045
     59.00      0.5121      0.5121
     60.00      0.5188      0.5188
     61.00      0.5241      0.5241
     62.00      0.5287      0.5287
     63.00      0.5336      0.5336
     64.00      0.5388      0.5388
     65.00      0.5443      0.5443
     66.00      0.5501      0.5501
     67.00      0.5564      0.5564
     68.00      0.5630      0.5630
     69.00      0.5689      0.5689
     70.00      0.5737      0.5737
     71.00      0.5779      0.5779
     72.00      0.5820      0.5820
     73.00      0.5857      0.5857
     74.00      0.5893      0.5893
     75.00      0.5931      0.5931
     76.00      0.5975      0.5975
     77.00      0.6023      0.6023
     78.00      0.6068      0.6068
     79.00      0.6113      0.6113
     80.00      0.6157      0.6157
     81.00      0.6188      0.6188
     82.00      0.6204      0.6204
     83.00      0.6216      0.6216
     84.00      0.6231      0.6231
     85.00      0.6252      0.6252
     86.00      0.6277      0.6277
     87.00      0.6305      0.6305
     88.00      0.6345      0.6345
     89.00      0.6389      0.6389
     90.00      0.6410      0.6410
     91.00      0.6389      0.6389
     92.00      0.6345      0.6345
     93.00      0.6305      0.6305
     94.00      0.6277      0.6277
     95.00      0.6252      0.6252
     96.00      0.6231      0.6231
     97.00      0.6216      0.6216
     98.00      0.6204      0.6204
     99.00      0.6188      0.6188
    100.00      0.6157      0.6157
    101.00      0.6113      0.6113
    102.00      0.6068      0.6068
    103.00      0.6022      0.6022
    104.00      0.5975      0.5975
    105.00      0.5931      0.5931
    106.00      0.5893      0.5893
    107.00      0.5857      0.5857
    108.00      0.5820      0.5820
    109.00      0.5779      0.5779
    110.00      0.5737      0.5737
    111.00      0.5689      0.5689
    112.00      0.5630      0.5630
    113.00      0.5564      0.5564
    114.00      0.5501      0.5501
    115.00      0.5443      0.5443
    116.00      0.5388      0.5388
    117.00      0.5336      0.5336
    118.00      0.5287      0.5287
    119.00      0.5241      0.5241
    120.00      0.5188      0.5188
    121.00      0.5121      0.5121
    122.00      0.5045      0.5045
    123.00      0.4972      0.4972
    124.00      0.4904      0.4904
    125.00      0.4839      0.4839
    126.00      0.4774      0.4774
    127.00      0.4711      0.4711
    128.00      0.4649      0.4649
    129.00      0.4585      0.4585
    130.00      0.4519      0.4519
    131.00      0.4452      0.4452
    132.00      0.4385      0.4385
    133.00      0.4317      0.4317
    134.00      0.4249      0.4249
    135.00      0.4181      0.4181
    136.00      0.4113      0.4113
    137.00      0.4045      0.4045
    138.00      0.3978      0.3978
    139.00      0.3911      0.3911
    140.00      0.3846      0.3846
    141.00      0.3783      0.3783
    142.00      0.3721      0.3721
    143.00      0.3660      0.3660
    144.00      0.3609      0.3609
    145.00      0.3572      0.3572
    146.00      0.3542      0.3542
    147.00      0.3501      0.3501
    148.00      0.3422      0.3422
    149.00      0.3318      0.3318
    150.00      0.3233      0.3233
    151.00      0.3180      0.3180
    152.00      0.3138      0.3138
    153.00      0.3094      0.3094
    154.00      0.3044      0.3044
    155.00      0.2993      0.2993
    156.00      0.2940      0.2940
    157.00      0.2872      0.2872
    158.00      0.2804      0.2804
    159.00      0.2769      0.2769
    160.00      0.2765      0.2765
    161.00      0.2762      0.2762
    162.00      0.2761      0.2761
    163.00      0.2782      0.2782
    164.00      0.2819      0.2819
    165.00      0.2840      0.2840
    166.00      0.2839      0.2839
    167.00      0.2839      0.2839
    168.00      0.2838      0.2838
    169.00      0.2829      0.2829
    170.00      0.2814      0.2814
    171.00      0.2806      0.2806
    172.00      0.2811      0.2811
    173.00      0.2820      0.2820
    174.00      0.2829      0.2829
    175.00      0.2835      0.2835
    176.00      0.2839      0.2839
    177.00      0.2843      0.2843
    178.00      0.2845      0.2845
    179.00      0.2847      0.2847
    180.00      0.2848      0.2848
                0.0000      1.0000
   -180.00     -0.0001     -0.0001
   -179.00      0.0059      0.0059
   -178.00      0.0120      0.0120
   -177.00      0.0182      0.0182
   -176.00      0.0245      0.0245
   -175.00      0.0309      0.0309
   -174.00      0.0373      0.0373
   -173.00      0.0450      0.0450
   -172.00      0.0527      0.0527
   -171.00      0.0563      0.0563
   -170.00      0.0564      0.0564
   -169.00      0.0564      0.0564
   -168.00      0.0565      0.0565
   -167.00      0.0548      0.0548
   -166.00      0.0510      0.0510
   -165.00      0.0473      0.0473
   -164.00      0.0443      0.0443
   -163.00      0.0414      0.0414
   -162.00      0.0383      0.0383
   -161.00      0.0350      0.0350
   -160.00      0.0316      0.0316
   -159.00      0.0279      0.0279
   -158.00      0.0231      0.0231
   -157.00      0.0181      0.0181
   -156.00      0.0154      0.0154
   -155.00      0.0148      0.0148
   -154.00      0.0145      0.0145
   -153.00      0.0142      0.0142
   -152.00      0.0139      0.0139
   -151.00      0.0136      0.0136
   -150.00      0.0132      0.0132
   -149.00      0.0128      0.0128
   -148.00      0.0124      0.0124
   -147.00      0.0119      0.0119
   -146.00      0.0115      0.0115
   -145.00      0.0112      0.0112
   -144.00      0.0108      0.0108
   -143.00      0.0104      0.0104
   -142.00      0.0099      0.0099
   -141.00      0.0096      0.0096
   -140.00      0.0094      0.0094
   -139.00      0.0093      0.0093
   -138.00      0.0092      0.0092
   -137.00      0.0091      0.0091
   -136.00      0.0091      0.0091
   -135.00      0.0090      0.0090
   -134.00      0.0090      0.0090
   -133.00      0.0089      0.0089
   -132.00      0.0089      0.0089
   -131.00      0.0088      0.0088
   -130.00      0.0088      0.0088
   -129.00      0.0088      0.0088
   -128.00      0.0088      0.0088
   -127.00      0.0089      0.0089
   -126.00      0.0090      0.0090
   -125.00      0.0091      0.0091
   -124.00      0.0091      0.0091
   -123.00      0.0092      0.0092
   -122.00      0.0092      0.0092
   -121.00      0.0093      0.0093
   -120.00      0.0094      0.0094
   -119.00      0.0094      0.0094
   -118.00      0.0095      0.0095
   -117.00      0.0096      0.0096
   -116.00      0.0097      0.0097
   -115.00      0.0098      0.0098
   -114.00      0.0099      0.0099
   -113.00      0.0100      0.0100
   -112.00      0.0101      0.0101
   -111.00      0.0102      0.0102
   -110.00      0.0103      0.0103
   -109.00      0.0104      0.0104
   -108.00      0.0105      0.0105
   -107.00      0.0105      0.0105
   -106.00      0.0106      0.0106
   -105.00      0.0107      0.0107
   -104.00      0.0108      0.0108
   -103.00      0.0109      0.0109
   -102.00      0.0109      0.0109
   -101.00      0.0110      0.0110
   -100.00      0.0111      0.0111
    -99.00      0.0111      0.0111
    -98.00      0.0111      0.0111
    -97.00      0.0111      0.0111
    -96.00      0.0111      0.0111
    -95.00      0.0111      0.0111
    -94.00      0.0111      0.0111
    -93.00      0.0111      0.0111
    -92.00      0.0111      0.0111
    -91.00      0.0112      0.0112
    -90.00      0.0112      0.0112
    -89.00      0.0111      0.0111
    -88.00      0.0109      0.0109
    -87.00      0.0107      0.0107
    -86.00      0.0106      0.0106
    -85.00      0.0104      0.0104
    -84.00      0.0103      0.0103
    -83.00      0.0101      0.0101
    -82.00      0.0100      0.0100
    -81.00      0.0098      0.0098
    -80.00      0.0097      0.0097
    -79.00      0.0095      0.0095
    -78.00      0.0093      0.0093
    -77.00      0.0091      0.0091
    -76.00      0.0089      0.0089
    -75.00      0.0087      0.0087