IEA-15-240-RWT_AeroDyn15_Polar_26; 2 361 2 361 2 361
                0.0000      1.0000
   -180.00      0.0000      0.0000
   -179.00      0.0273      0.0273
   -178.00      0.0546      0.0546
   -177.00      0.0819      0.0819
   -176.00      0.1091      0.1091
   -175.00      0.1364      0.1364
   -174.00      0.1637      0.1637
   -173.00      0.1910      0.1910
   -172.00      0.2183      0.2183
   -171.00      0.2456      0.2456
   -170.00      0.2728      0.2728
   -169.00      0.3001      0.3001
   -168.00      0.3274      0.3274
   -167.00      0.3547      0.3547
   -166.00      0.3820      0.3820
   -165.00      0.4093      0.4093
   -164.00      0.4365      0.4365
   -163.00      0.4638      0.4638
   -162.00      0.4911      0.4911
   -161.00      0.5184      0.5184
   -160.00      0.5457      0.5457
   -159.00      0.5730      0.5730
   -158.00      0.6002      0.6002
   -157.00      0.6275      0.6275
   -156.00      0.6548      0.6548
   -155.00      0.6821      0.6821
   -154.00      0.7094      0.7094
   -153.00      0.7367      0.7367
   -152.00      0.7659      0.7659
   -151.00      0.7952      0.7952
   -150.00      0.8185      0.8185
   -149.00      0.8374      0.8374
   -148.00      0.8533      0.8533
   -147.00      0.8599      0.8599
   -146.00      0.8525      0.8525
   -145.00      0.8363      0.8363
   -144.00      0.8206      0.8206
   -143.00      0.8083      0.8083
   -142.00      0.7964      0.7964
   -141.00      0.7846      0.7846
   -140.00      0.7728      0.7728
   -139.00      0.7610      0.7610
   -138.00      0.7492      0.7492
   -137.00      0.7375      0.7375
   -136.00      0.7257      0.7257
   -135.00      0.7139      0.7139
   -134.00      0.7020      0.7020
   -133.00      0.6899      0.6899
   -132.00      0.6777      0.6777
   -131.00      0.6653      0.6653
   -130.00      0.6527      0.6527
   -129.00      0.6398      0.6398
   -128.00      0.6268      0.6268
   -127.00      0.6135      0.6135
   -126.00      0.6001      0.6001
   -125.00      0.5865      0.5865
   -124.00      0.5727      0.5727
   -123.00      0.5586      0.5586
   -122.00      0.5441      0.5441
   -121.00      0.5293      0.5293
   -120.00      0.5143      0.5143
   -119.00      0.4991      0.4991
   -118.00      0.4836      0.4836
   -117.00      0.4680      0.4680
   -116.00      0.4522      0.4522
   -115.00      0.4362      0.4362
   -114.00      0.4200      0.4200
   -113.00      0.4036      0.4036
   -112.00      0.3870      0.3870
   -111.00      0.3701      0.3701
   -110.00      0.3531      0.3531
   -109.00      0.3358      0.3358
   -108.00      0.3184      0.3184
   -107.00      0.3009      0.3009
   -106.00      0.2834      0.2834
   -105.00      0.2658      0.2658
   -104.00      0.2480      0.2480
   -103.00      0.2302      0.2302
   -102.00      0.2124      0.2124
   -101.00      0.1945      0.1945
   -100.00      0.1765      0.1765
    -99.00      0.1585      0.1585
    -98.00      0.1407      0.1407
    -97.00      0.1228      0.1228
    -96.00      0.1050      0.1050
    -95.00      0.0873      0.0873
    -94.00      0.0696      0.0696
    -93.00      0.0521      0.0521
    -92.00      0.0347      0.0347
    -91.00      0.0173      0.0173
    -90.00     -0.0000     -0.0000
    -89.00     -0.0173     -0.0173
    -88.00     -0.0347     -0.0347
    -87.00     -0.0521     -0.0521
    -86.00     -0.0696     -0.0696
    -85.00     -0.0873     -0.0873
    -84.00     -0.1050     -0.1050
    -83.00     -0.1228     -0.1228
    -82.00     -0.1407     -0.1407
    -81.00     -0.1585     -0.1585
    -80.00     -0.1765     -0.1765
    -79.00     -0.1945     -0.1945
    -78.00     -0.2124     -0.2124
    -77.00     -0.2302     -0.2302
    -76.00     -0.2480     -0.2480
    -75.00     -0.2658     -0.2658
    -74.00     -0.2834     -0.2834
    -73.00     -0.3009     -0.3009
    -72.00     -0.3184     -0.3184
    -71.00     -0.3358     -0.3358
    -70.00     -0.3531     -0.3531
    -69.00     -0.3701     -0.3701
    -68.00     -0.3870     -0.3870
    -67.00     -0.4036     -0.4036
    -66.00     -0.4200     -0.4200
    -65.00     -0.4362     -0.4362
    -64.00     -0.4522     -0.4522
    -63.00     -0.4680     -0.4680
    -62.00     -0.4836     -0.4836
    -61.00     -0.4991     -0.4991
    -60.00     -0.5143     -0.5143
    -59.00     -0.5293     -0.5293
    -58.00     -0.5441     -0.5441
    -57.00     -0.5586     -0.5586
    -56.00     -0.5727     -0.5727
    -55.00     -0.5865     -0.5865
    -54.00     -0.6001     -0.6001
    -53.00     -0.6135     -0.6135
    -52.00     -0.6268     -0.6268
    -51.00     -0.6398     -0.6398
    -50.00     -0.6527     -0.6527
    -49.00     -0.6653     -0.6653
    -48.00     -0.6777     -0.6777
    -47.00     -0.6911     -0.6911
    -46.00     -0.7043     -0.7043
    -45.00     -0.7139     -0.7139
    -44.00     -0.7193     -0.7193
    -43.00     -0.7233     -0.7233
    -42.00     -0.7277     -0.7277
    -41.00     -0.7332     -0.7332
    -40.00     -0.7392     -0.7392
    -39.00     -0.7457     -0.7457
    -38.00     -0.7527     -0.7527
    -37.00     -0.7602     -0.7602
    -36.00     -0.7685     -0.7685
    -35.00     -0.7766     -0.7766
    -34.00     -0.7858     -0.7858
    -33.00     -0.7990     -0.7990
    -32.00     -0.8272     -0.8272
    -31.00     -0.8720     -0.8720
    -30.00     -0.9224     -0.9224
    -29.00     -0.9794     -0.9794
    -28.00     -1.0305     -1.0305
    -27.00     -1.0332     -1.0332
    -26.00     -1.0296     -1.0296
    -25.00     -1.0272     -1.0272
    -24.00     -1.0273     -1.0273
    -23.00     -1.0282     -1.0282
    -22.00     -1.0291     -1.0291
    -21.00     -1.0301     -1.0301
    -20.00     -1.0304     -1.0304
    -19.00     -1.0274     -1.0274
    -18.00     -1.0237     -1.0237
    -17.00     -1.0178     -1.0178
    -16.00     -1.0124     -1.0124
    -15.00     -1.0410     -1.0410
    -14.00     -1.0699     -1.0699
    -13.00     -1.0818     -1.0818
    -12.00     -1.0804     -1.0804
    -11.00     -1.0076     -1.0076
    -10.00     -0.9244     -0.9244
     -9.00     -0.8108     -0.8108
     -8.00     -0.6951     -0.6951
     -7.00     -0.5672     -0.5672
     -6.00     -0.4372     -0.4372
     -5.00     -0.3009     -0.3009
     -4.00     -0.1639     -0.1639
     -3.00     -0.0285     -0.0285
     -2.00      0.1067      0.1067
     -1.00      0.2398      0.2398
      0.00      0.3714      0.3714
      1.00      0.5022      0.5022
      2.00      0.6317      0.6317
      3.00      0.7598      0.7598
      4.00      0.8868      0.8868
      5.00      1.0119      1.0119
      6.00      1.1344      1.1344
      7.00      1.2554      1.2554
      8.00      1.3732      1.3732
      9.00      1.4873      1.4873
     10.00      1.5967      1.5967
     11.00      1.6970      1.6970
     12.00      1.7871      1.7871
     13.00      1.8625      1.8625
     14.00      1.9103      1.9103
     15.00      1.8940      1.8940
     16.00      1.8638      1.8638
     17.00      1.7777      1.7777
     18.00      1.6887      1.6887
     19.00      1.5951      1.5951
     20.00      1.5061      1.5061
     21.00      1.4513      1.4513
     22.00      1.4015      1.4015
     23.00      1.3516      1.3516
     24.00      1.3033      1.3033
     25.00      1.2883      1.2883
     26.00      1.2785      1.2785
     27.00      1.2710      1.2710
     28.00      1.2612      1.2612
     29.00      1.2403      1.2403
     30.00      1.2185      1.2185
     31.00      1.1980      1.1980
     32.00      1.1783      1.1783
     33.00      1.1602      1.1602
     34.00      1.1438      1.1438
     35.00      1.1285      1.1285
     36.00      1.1145      1.1145
     37.00      1.1015      1.1015
     38.00      1.0895      1.0895
     39.00      1.0780      1.0780
     40.00      1.0671      1.0671
     41.00      1.0566      1.0566
     42.00      1.0467      1.0467
     43.00      1.0381      1.0381
     44.00      1.0299      1.0299
     45.00      1.0198      1.0198
     46.00      1.0051      1.0051
     47.00      0.9868      0.9868
     48.00      0.9682      0.9682
     49.00      0.9504      0.9504
     50.00      0.9324      0.9324
     51.00      0.9141      0.9141
     52.00      0.8954      0.8954
     53.00      0.8765      0.8765
     54.00      0.8573      0.8573
     55.00      0.8378      0.8378
     56.00      0.8182      0.8182
     57.00      0.7980      0.7980
     58.00      0.7773      0.7773
     59.00      0.7562      0.7562
     60.00      0.7347      0.7347
     61.00      0.7129      0.7129
     62.00      0.6909      0.6909
     63.00      0.6686      0.6686
     64.00      0.6460      0.6460
     65.00      0.6231      0.6231
     66.00      0.6000      0.6000
     67.00      0.5765      0.5765
     68.00      0.5528      0.5528
     69.00      0.5287      0.5287
     70.00      0.5044      0.5044
     71.00      0.4797      0.4797
     72.00      0.4549      0.4549
     73.00      0.4299      0.4299
     74.00      0.4048      0.4048
     75.00      0.3796      0.3796
     76.00      0.3543      0.3543
     77.00      0.3289      0.3289
     78.00      0.3034      0.3034
     79.00      0.2778      0.2778
     80.00      0.2521      0.2521
     81.00      0.2265      0.2265
     82.00      0.2009      0.2009
     83.00      0.1754      0.1754
     84.00      0.1500      0.1500
     85.00      0.1247      0.1247
     86.00      0.0995      0.0995
     87.00      0.0744      0.0744
     88.00      0.0485      0.0485
     89.00      0.0228      0.0228
     90.00      0.0000      0.0000
     91.00     -0.0187     -0.0187
     92.00     -0.0353     -0.0353
     93.00     -0.0521     -0.0521
     94.00     -0.0696     -0.0696
     95.00     -0.0873     -0.0873
     96.00     -0.1050     -0.1050
     97.00     -0.1228     -0.1228
     98.00     -0.1407     -0.1407
     99.00     -0.1585     -0.1585
    100.00     -0.1765     -0.1765
    101.00     -0.1945     -0.1945
    102.00     -0.2124     -0.2124
    103.00     -0.2302     -0.2302
    104.00     -0.2480     -0.2480
    105.00     -0.2658     -0.2658
    106.00     -0.2834     -0.2834
    107.00     -0.3009     -0.3009
    108.00     -0.3184     -0.3184
    109.00     -0.3358     -0.3358
    110.00     -0.3531     -0.3531
    111.00     -0.3701     -0.3701
    112.00     -0.3870     -0.3870
    113.00     -0.4036     -0.4036
    114.00     -0.4200     -0.4200
    115.00     -0.4362     -0.4362
    116.00     -0.4522     -0.4522
    117.00     -0.4680     -0.4680
    118.00     -0.4836     -0.4836
    119.00     -0.4991     -0.4991
    120.00     -0.5143     -0.5143
    121.00     -0.5293     -0.5293
    122.00     -0.5441     -0.5441
    123.00     -0.5586     -0.5586
    124.00     -0.5727     -0.5727
    125.00     -0.5865     -0.5865
    126.00     -0.6001     -0.6001
    127.00     -0.6135     -0.6135
    128.00     -0.6268     -0.6268
    129.00     -0.6398     -0.6398
    130.00     -0.6527     -0.6527
    131.00     -0.6653     -0.6653
    132.00     -0.6777     -0.6777
    133.00     -0.6899     -0.6899
    134.00     -0.7020     -0.7020
    135.00     -0.7139     -0.7139
    136.00     -0.7257     -0.7257
    137.00     -0.7375     -0.7375
    138.00     -0.7492     -0.7492
    139.00     -0.7610     -0.7610
    140.00     -0.7728     -0.7728
    141.00     -0.7846     -0.7846
    142.00     -0.7964     -0.7964
    143.00     -0.8083     -0.8083
    144.00     -0.8206     -0.8206
    145.00     -0.8363     -0.8363
    146.00     -0.8525     -0.8525
    147.00     -0.8599     -0.8599
    148.00     -0.8533     -0.8533
    149.00     -0.8374     -0.8374
    150.00     -0.8185     -0.8185
    151.00     -0.7952     -0.7952
    152.00     -0.7659     -0.7659
    153.00     -0.7367     -0.7367
    154.00     -0.7094     -0.7094
    155.00     -0.6821     -0.6821
    156.00     -0.6548     -0.6548
    157.00     -0.6275     -0.6275
    158.00     -0.6002     -0.6002
    159.00     -0.5730     -0.5730
    160.00     -0.5457     -0.5457
    161.00     -0.5184     -0.5184
    162.00     -0.4911     -0.4911
    163.00     -0.4638     -0.4638
    164.00     -0.4365     -0.4365
    165.00     -0.4093     -0.4093
    166.00     -0.3820     -0.3820
    167.00     -0.3547     -0.3547
    168.00     -0.3274     -0.3274
    169.00     -0.3001     -0.3001
    170.00     -0.2728     -0.2728
    171.00     -0.2456     -0.2456
    172.00     -0.2183     -0.2183
    173.00     -0.1910     -0.1910
    174.00     -0.1637     -0.1637
    175.00     -0.1364     -0.1364
    176.00     -0.1091     -0.1091
    177.00     -0.0819     -0.0819
    178.00     -0.0546     -0.0546
    179.00     -0.0273     -0.0273
    180.00      0.0000      0.0000
                0.0000      1.0000
   -180.00      0.0159      0.0159
   -179.00      0.0161      0.0161
   -178.00      0.0165      0.0165
   -177.00      0.0171      0.0171
   -176.00      0.0180      0.0180
   -175.00      0.0191      0.0191
   -174.00      0.0205      0.0205
   -173.00      0.0219      0.0219
   -172.00      0.0237      0.0237
   -171.00      0.0259      0.0259
   -170.00      0.0291      0.0291
   -169.00      0.0335      0.0335
   -168.00      0.0392      0.0392
   -167.00      0.0480      0.0480
   -166.00      0.0600      0.0600
   -165.00      0.0726      0.0726
   -164.00      0.0851      0.0851
   -163.00      0.0984      0.0984
   -162.00      0.1124      0.1124
   -161.00      0.1271      0.1271
   -160.00      0.1426      0.1426
   -159.00      0.1587      0.1587
   -158.00      0.1754      0.1754
   -157.00      0.1928      0.1928
   -156.00      0.2108      0.2108
   -155.00      0.2292      0.2292
   -154.00      0.2482      0.2482
   -153.00      0.2677      0.2677
   -152.00      0.2877      0.2877
   -151.00      0.3083      0.3083
   -150.00      0.3293      0.3293
   -149.00      0.3508      0.3508
   -148.00      0.3729      0.3729
   -147.00      0.3952      0.3952
   -146.00      0.4177      0.4177
   -145.00      0.4404      0.4404
   -144.00      0.4635      0.4635
   -143.00      0.4870      0.4870
   -142.00      0.5108      0.5108
   -141.00      0.5348      0.5348
   -140.00      0.5589      0.5589
   -139.00      0.5831      0.5831
   -138.00      0.6074      0.6074
   -137.00      0.6317      0.6317
   -136.00      0.6562      0.6562
   -135.00      0.6807      0.6807
   -134.00      0.7053      0.7053
   -133.00      0.7298      0.7298
   -132.00      0.7543      0.7543
   -131.00      0.7786      0.7786
   -130.00      0.8028      0.8028
   -129.00      0.8268      0.8268
   -128.00      0.8507      0.8507
   -127.00      0.8745      0.8745
   -126.00      0.8980      0.8980
   -125.00      0.9214      0.9214
   -124.00      0.9446      0.9446
   -123.00      0.9674      0.9674
   -122.00      0.9896      0.9896
   -121.00      1.0114      1.0114
   -120.00      1.0327      1.0327
   -119.00      1.0537      1.0537
   -118.00      1.0743      1.0743
   -117.00      1.0944      1.0944
   -116.00      1.1142      1.1142
   -115.00      1.1335      1.1335
   -114.00      1.1523      1.1523
   -113.00      1.1707      1.1707
   -112.00      1.1885      1.1885
   -111.00      1.2054      1.2054
   -110.00      1.2214      1.2214
   -109.00      1.2367      1.2367
   -108.00      1.2514      1.2514
   -107.00      1.2655      1.2655
   -106.00      1.2791      1.2791
   -105.00      1.2920      1.2920
   -104.00      1.3044      1.3044
   -103.00      1.3162      1.3162
   -102.00      1.3270      1.3270
   -101.00      1.3369      1.3369
   -100.00      1.3459      1.3459
    -99.00      1.3539      1.3539
    -98.00      1.3611      1.3611
    -97.00      1.3675      1.3675
    -96.00      1.3732      1.3732
    -95.00      1.3781      1.3781
    -94.00      1.3825      1.3825
    -93.00      1.3860      1.3860
    -92.00      1.3889      1.3889
    -91.00      1.3914      1.3914
    -90.00      1.3924      1.3924
    -89.00      1.3914      1.3914
    -88.00      1.3889      1.3889
    -87.00      1.3860      1.3860
    -86.00      1.3825      1.3825
    -85.00      1.3781      1.3781
    -84.00      1.3732      1.3732
    -83.00      1.3675      1.3675
    -82.00      1.3611      1.3611
    -81.00      1.3539      1.3539
    -80.00      1.3459      1.3459
    -79.00      1.3369      1.3369
    -78.00      1.3270      1.3270
    -77.00      1.3162      1.3162
    -76.00      1.3044      1.3044
    -75.00      1.2920      1.2920
    -74.00      1.2791      1.2791
    -73.00      1.2655      1.2655
    -72.00      1.2514      1.2514
    -71.00      1.2367      1.2367
    -70.00      1.2214      1.2214
    -69.00      1.2054      1.2054
    -68.00      1.1885      1.1885
    -67.00      1.1707      1.1707
    -66.00      1.1523      1.1523
    -65.00      1.1335      1.1335
    -64.00      1.1142      1.1142
    -63.00      1.0944      1.0944
    -62.00      1.0743      1.0743
    -61.00      1.0537      1.0537
    -60.00      1.0327      1.0327
    -59.00      1.0114      1.0114
    -58.00      0.9896      0.9896
    -57.00      0.9674      0.9674
    -56.00      0.9446      0.9446
    -55.00      0.9214      0.9214
    -54.00      0.8980      0.8980
    -53.00      0.8745      0.8745
    -52.00      0.8507      0.8507
    -51.00      0.8268      0.8268
    -50.00      0.8028      0.8028
    -49.00      0.7786      0.7786
    -48.00      0.7543      0.7543
    -47.00      0.7298      0.7298
    -46.00      0.7053      0.7053
    -45.00      0.6807      0.6807
    -44.00      0.6562      0.6562
    -43.00      0.6317      0.6317
    -42.00      0.6074      0.6074
    -41.00      0.5831      0.5831
    -40.00      0.5589      0.5589
    -39.00      0.5348      0.5348
    -38.00      0.5108      0.5108
    -37.00      0.4870      0.4870
    -36.00      0.4635      0.4635
    -35.00      0.4414      0.4414
    -34.00      0.4197      0.4197
    -33.00      0.3952      0.3952
    -32.00      0.3654      0.3654
    -31.00      0.3315      0.3315
    -30.00      0.2956      0.2956
    -29.00      0.2571      0.2571
    -28.00      0.2210      0.2210
    -27.00      0.2040      0.2040
    -26.00      0.1893      0.1893
    -25.00      0.1745      0.1745
    -24.00      0.1598      0.1598
    -23.00      0.1467      0.1467
    -22.00      0.1336      0.1336
    -21.00      0.1205      0.1205
    -20.00      0.1077      0.1077
    -19.00      0.0971      0.0971
    -18.00      0.0869      0.0869
    -17.00      0.0776      0.0776
    -16.00      0.0683      0.0683
    -15.00      0.0579      0.0579
    -14.00      0.0476      0.0476
    -13.00      0.0391      0.0391
    -12.00      0.0311      0.0311
    -11.00      0.0254      0.0254
    -10.00      0.0199      0.0199
     -9.00      0.0173      0.0173
     -8.00      0.0147      0.0147
     -7.00      0.0132      0.0132
     -6.00      0.0118      0.0118
     -5.00      0.0111      0.0111
     -4.00      0.0104      0.0104
     -3.00      0.0101      0.0101
     -2.00      0.0099      0.0099
     -1.00      0.0098      0.0098
      0.00      0.0098      0.0098
      1.00      0.0099      0.0099
      2.00      0.0100      0.0100
      3.00      0.0103      0.0103
      4.00      0.0106      0.0106
      5.00      0.0109      0.0109
      6.00      0.0115      0.0115
      7.00      0.0121      0.0121
      8.00      0.0128      0.0128
      9.00      0.0136      0.0136
     10.00      0.0147      0.0147
     11.00      0.0161      0.0161
     12.00      0.0179      0.0179
     13.00      0.0204      0.0204
     14.00      0.0245      0.0245
     15.00      0.0325      0.0325
     16.00      0.0428      0.0428
     17.00      0.0596      0.0596
     18.00      0.0768      0.0768
     19.00      0.0978      0.0978
     20.00      0.1189      0.1189
     21.00      0.1397      0.1397
     22.00      0.1604      0.1604
     23.00      0.1811      0.1811
     24.00      0.2017      0.2017
     25.00      0.2213      0.2213
     26.00      0.2408      0.2408
     27.00      0.2600      0.2600
     28.00      0.2797      0.2797
     29.00      0.3027      0.3027
     30.00      0.3259      0.3259
     31.00      0.3491      0.3491
     32.00      0.3722      0.3722
     33.00      0.3952      0.3952
     34.00      0.4179      0.4179
     35.00      0.4405      0.4405
     36.00      0.4635      0.4635
     37.00      0.4870      0.4870
     38.00      0.5108      0.5108
     39.00      0.5348      0.5348
     40.00      0.5589      0.5589
     41.00      0.5831      0.5831
     42.00      0.6074      0.6074
     43.00      0.6317      0.6317
     44.00      0.6562      0.6562
     45.00      0.6807      0.6807
     46.00      0.7053      0.7053
     47.00      0.7298      0.7298
     48.00      0.7543      0.7543
     49.00      0.7786      0.7786
     50.00      0.8028      0.8028
     51.00      0.8268      0.8268
     52.00      0.8507      0.8507
     53.00      0.8745      0.8745
     54.00      0.8980      0.8980
     55.00      0.9214      0.9214
     56.00      0.9446      0.9446
     57.00      0.9674      0.9674
     58.00      0.9896      0.9896
     59.00      1.0114      1.0114
     60.00      1.0327      1.0327
     61.00      1.0537      1.0537
     62.00      1.0743      1.0743
     63.00      1.0944      1.0944
     64.00      1.1142      1.1142
     65.00      1.1335      1.1335
     66.00      1.1523      1.1523
     67.00      1.1707      1.1707
     68.00      1.1885      1.1885
     69.00      1.2054      1.2054
     70.00      1.2214      1.2214
     71.00      1.2367      1.2367
     72.00      1.2514      1.2514
     73.00      1.2655      1.2655
     74.00      1.2791      1.2791
     75.00      1.2920      1.2920
     76.00      1.3044      1.3044
     77.00      1.3162      1.3162
     78.00      1.3270      1.3270
     79.00      1.3369      1.3369
     80.00      1.3459      1.3459
     81.00      1.3539      1.3539
     82.00      1.3611      1.3611
     83.00      1.3675      1.3675
     84.00      1.3732      1.3732
     85.00      1.3781      1.3781
     86.00      1.3825      1.3825
     87.00      1.3860      1.3860
     88.00      1.3889      1.3889
     89.00      1.3914      1.3914
     90.00      1.3924      1.3924
     91.00      1.3914      1.3914
     92.00      1.3889      1.3889
     93.00      1.3860      1.3860
     94.00      1.3825      1.3825
     95.00      1.3781      1.3781
     96.00      1.3732      1.3732
     97.00      1.3675      1.3675
     98.00      1.3611      1.3611
     99.00      1.3539      1.3539
    100.00      1.3459      1.3459
    101.00      1.3369      1.3369
    102.00      1.3270      1.3270
    103.00      1.3162      1.3162
    104.00      1.3044      1.3044
    105.00      1.2920      1.2920
    106.00      1.2791      1.2791
    107.00      1.2655      1.2655
    108.00      1.2514      1.2514
    109.00      1.2367      1.2367
    110.00      1.2214      1.2214
    111.00      1.2054      1.2054
    112.00      1.1885      1.1885
    113.00      1.1707      1.1707
    114.00      1.1523      1.1523
    115.00      1.1335      1.1335
    116.00      1.1142      1.1142
    117.00      1.0944      1.0944
    118.00      1.0743      1.0743
    119.00      1.0537      1.0537
    120.00      1.0327      1.0327
    121.00      1.0114      1.0114
    122.00      0.9896      0.9896
    123.00      0.9674      0.9674
    124.00      0.9446      0.9446
    125.00      0.9214      0.9214
    126.00      0.8980      0.8980
    127.00      0.8745      0.8745
    128.00      0.8507      0.8507
    129.00      0.8268      0.8268
    130.00      0.8028      0.8028
    131.00      0.7786      0.7786
    132.00      0.7543      0.7543
    133.00      0.7298      0.7298
    134.00      0.7053      0.7053
    135.00      0.6807      0.6807
    136.00      0.6562      0.6562
    137.00      0.6317      0.6317
    138.00      0.6074      0.6074
    139.00      0.5831      0.5831
    140.00      0.5589      0.5589
    141.00      0.5348      0.5348
    142.00      0.5108      0.5108
    143.00      0.4870      0.4870
    144.00      0.4635      0.4635
    145.00      0.4404      0.4404
    146.00      0.4177      0.4177
    147.00      0.3952      0.3952
    148.00      0.3729      0.3729
    149.00      0.3508      0.3508
    150.00      0.3293      0.3293
    151.00      0.3083      0.3083
    152.00      0.2877      0.2877
    153.00      0.2677      0.2677
    154.00      0.2482      0.2482
    155.00      0.2292      0.2292
    156.00      0.2107      0.2107
    157.00      0.1928      0.1928
    158.00      0.1754      0.1754
    159.00      0.1587      0.1587
    160.00      0.1426      0.1426
    161.00      0.1271      0.1271
    162.00      0.1124      0.1124
    163.00      0.0984      0.0984
    164.00      0.0851      0.0851
    165.00      0.0726      0.0726
    166.00      0.0600      0.0600
    167.00      0.0480      0.0480
    168.00      0.0392      0.0392
    169.00      0.0335      0.0335
    170.00      0.0291      0.0291
    171.00      0.0259      0.0259
    172.00      0.0237      0.0237
    173.00      0.0219      0.0219
    174.00      0.0205      0.0205
    175.00      0.0191      0.0191
    176.00      0.0180      0.0180
    177.00      0.0171      0.0171
    178.00      0.0165      0.0165
    179.00      0.0161      0.0161
    180.00      0.0159      0.0159
                0.0000      1.0000
   -180.00      0.0000      0.0000
   -179.00      0.0400      0.0400
   -178.00      0.0800      0.0800
   -177.00      0.1200      0.1200
   -176.00      0.1600      0.1600
   -175.00      0.2000      0.2000
   -174.00      0.2400      0.2400
   -173.00      0.2846      0.2846
   -172.00      0.3291      0.3291
   -171.00      0.3600      0.3600
   -170.00      0.3786      0.3786
   -169.00      0.3928      0.3928
   -168.00      0.3985      0.3985
   -167.00      0.3981      0.3981
   -166.00      0.3971      0.3971
   -165.00      0.3962      0.3962
   -164.00      0.3953      0.3953
   -163.00      0.3943      0.3943
   -162.00      0.3939      0.3939
   -161.00      0.3947      0.3947
   -160.00      0.3969      0.3969
   -159.00      0.3998      0.3998
   -158.00      0.4054      0.4054
   -157.00      0.4138      0.4138
   -156.00      0.4223      0.4223
   -155.00      0.4298      0.4298
   -154.00      0.4374      0.4374
   -153.00      0.4447      0.4447
   -152.00      0.4530      0.4530
   -151.00      0.4610      0.4610
   -150.00      0.4646      0.4646
   -149.00      0.4640      0.4640
   -148.00      0.4623      0.4623
   -147.00      0.4605      0.4605
   -146.00      0.4586      0.4586
   -145.00      0.4562      0.4562
   -144.00      0.4540      0.4540
   -143.00      0.4518      0.4518
   -142.00      0.4496      0.4496
   -141.00      0.4477      0.4477
   -140.00      0.4463      0.4463
   -139.00      0.4450      0.4450
   -138.00      0.4439      0.4439
   -137.00      0.4430      0.4430
   -136.00      0.4423      0.4423
   -135.00      0.4415      0.4415
   -134.00      0.4405      0.4405
   -133.00      0.4396      0.4396
   -132.00      0.4391      0.4391
   -131.00      0.4391      0.4391
   -130.00      0.4392      0.4392
   -129.00      0.4392      0.4392
   -128.00      0.4395      0.4395
   -127.00      0.4400      0.4400
   -126.00      0.4406      0.4406
   -125.00      0.4412      0.4412
   -124.00      0.4420      0.4420
   -123.00      0.4428      0.4428
   -122.00      0.4436      0.4436
   -121.00      0.4444      0.4444
   -120.00      0.4451      0.4451
   -119.00      0.4459      0.4459
   -118.00      0.4466      0.4466
   -117.00      0.4474      0.4474
   -116.00      0.4481      0.4481
   -115.00      0.4489      0.4489
   -114.00      0.4496      0.4496
   -113.00      0.4505      0.4505
   -112.00      0.4514      0.4514
   -111.00      0.4519      0.4519
   -110.00      0.4520      0.4520
   -109.00      0.4520      0.4520
   -108.00      0.4520      0.4520
   -107.00      0.4520      0.4520
   -106.00      0.4518      0.4518
   -105.00      0.4516      0.4516
   -104.00      0.4514      0.4514
   -103.00      0.4512      0.4512
   -102.00      0.4508      0.4508
   -101.00      0.4502      0.4502
   -100.00      0.4494      0.4494
    -99.00      0.4484      0.4484
    -98.00      0.4472      0.4472
    -97.00      0.4457      0.4457
    -96.00      0.4442      0.4442
    -95.00      0.4426      0.4426
    -94.00      0.4409      0.4409
    -93.00      0.4393      0.4393
    -92.00      0.4378      0.4378
    -91.00      0.4363      0.4363
    -90.00      0.4344      0.4344
    -89.00      0.4315      0.4315
    -88.00      0.4278      0.4278
    -87.00      0.4240      0.4240
    -86.00      0.4205      0.4205
    -85.00      0.4171      0.4171
    -84.00      0.4135      0.4135
    -83.00      0.4100      0.4100
    -82.00      0.4064      0.4064
    -81.00      0.4027      0.4027
    -80.00      0.3987      0.3987
    -79.00      0.3946      0.3946
    -78.00      0.3903      0.3903
    -77.00      0.3860      0.3860
    -76.00      0.3814      0.3814
    -75.00      0.3769      0.3769