IEA-15-240-RWT_AeroDyn15_Polar_20; 2 361 2 361 2 361
                0.0000      1.0000
   -180.00      0.0000      0.0000
   -179.00      0.0290      0.0290
   -178.00      0.0580      0.0580
   -177.00      0.0870      0.0870
   -176.00      0.1160      0.1160
   -175.00      0.1451      0.1451
   -174.00      0.1741      0.1741
   -173.00      0.2031      0.2031
   -172.00      0.2321      0.2321
   -171.00      0.2611      0.2611
   -170.00      0.2901      0.2901
   -169.00      0.3191      0.3191
   -168.00      0.3481      0.3481
   -167.00      0.3771      0.3771
   -166.00      0.4061      0.4061
   -165.00      0.4352      0.4352
   -164.00      0.4642      0.4642
   -163.00      0.4932      0.4932
   -162.00      0.5222      0.5222
   -161.00      0.5512      0.5512
   -160.00      0.5802      0.5802
   -159.00      0.6092      0.6092
   -158.00      0.6382      0.6382
   -157.00      0.6672      0.6672
   -156.00      0.6962      0.6962
   -155.00      0.7253      0.7253
   -154.00      0.7543      0.7543
   -153.00      0.7833      0.7833
   -152.00      0.8146      0.8146
   -151.00      0.8460      0.8460
   -150.00      0.8703      0.8703
   -149.00      0.8890      0.8890
   -148.00      0.9044      0.9044
   -147.00      0.9108      0.9108
   -146.00      0.9008      0.9008
   -145.00      0.8792      0.8792
   -144.00      0.8582      0.8582
   -143.00      0.8421      0.8421
   -142.00      0.8267      0.8267
   -141.00      0.8114      0.8114
   -140.00      0.7963      0.7963
   -139.00      0.7813      0.7813
   -138.00      0.7665      0.7665
   -137.00      0.7518      0.7518
   -136.00      0.7372      0.7372
   -135.00      0.7227      0.7227
   -134.00      0.7084      0.7084
   -133.00      0.6941      0.6941
   -132.00      0.6799      0.6799
   -131.00      0.6657      0.6657
   -130.00      0.6515      0.6515
   -129.00      0.6372      0.6372
   -128.00      0.6228      0.6228
   -127.00      0.6083      0.6083
   -126.00      0.5937      0.5937
   -125.00      0.5790      0.5790
   -124.00      0.5642      0.5642
   -123.00      0.5491      0.5491
   -122.00      0.5339      0.5339
   -121.00      0.5184      0.5184
   -120.00      0.5028      0.5028
   -119.00      0.4870      0.4870
   -118.00      0.4711      0.4711
   -117.00      0.4551      0.4551
   -116.00      0.4390      0.4390
   -115.00      0.4227      0.4227
   -114.00      0.4063      0.4063
   -113.00      0.3898      0.3898
   -112.00      0.3731      0.3731
   -111.00      0.3563      0.3563
   -110.00      0.3394      0.3394
   -109.00      0.3223      0.3223
   -108.00      0.3052      0.3052
   -107.00      0.2881      0.2881
   -106.00      0.2709      0.2709
   -105.00      0.2536      0.2536
   -104.00      0.2364      0.2364
   -103.00      0.2191      0.2191
   -102.00      0.2018      0.2018
   -101.00      0.1845      0.1845
   -100.00      0.1672      0.1672
    -99.00      0.1500      0.1500
    -98.00      0.1329      0.1329
    -97.00      0.1159      0.1159
    -96.00      0.0990      0.0990
    -95.00      0.0822      0.0822
    -94.00      0.0655      0.0655
    -93.00      0.0489      0.0489
    -92.00      0.0325      0.0325
    -91.00      0.0163      0.0163
    -90.00     -0.0000     -0.0000
    -89.00     -0.0163     -0.0163
    -88.00     -0.0325     -0.0325
    -87.00     -0.0489     -0.0489
    -86.00     -0.0655     -0.0655
    -85.00     -0.0822     -0.0822
    -84.00     -0.0990     -0.0990
    -83.00     -0.1159     -0.1159
    -82.00     -0.1329     -0.1329
    -81.00     -0.1500     -0.1500
    -80.00     -0.1672     -0.1672
    -79.00     -0.1845     -0.1845
    -78.00     -0.2018     -0.2018
    -77.00     -0.2191     -0.2191
    -76.00     -0.2364     -0.2364
    -75.00     -0.2536     -0.2536
    -74.00     -0.2709     -0.2709
    -73.00     -0.2881     -0.2881
    -72.00     -0.3052     -0.3052
    -71.00     -0.3223     -0.3223
    -70.00     -0.3394     -0.3394
    -69.00     -0.3563     -0.3563
    -68.00     -0.3731     -0.3731
    -67.00     -0.3898     -0.3898
    -66.00     -0.4063     -0.4063
    -65.00     -0.4227     -0.4227
    -64.00     -0.4390     -0.4390
    -63.00     -0.4551     -0.4551
    -62.00     -0.4711     -0.4711
    -61.00     -0.4870     -0.4870
    -60.00     -0.5028     -0.5028
    -59.00     -0.5184     -0.5184
    -58.00     -0.5339     -0.5339
    -57.00     -0.5491     -0.5491
    -56.00     -0.5642     -0.5642
    -55.00     -0.5790     -0.5790
    -54.00     -0.5937     -0.5937
    -53.00     -0.6083     -0.6083
    -52.00     -0.6228     -0.6228
    -51.00     -0.6372     -0.6372
    -50.00     -0.6515     -0.6515
    -49.00     -0.6657     -0.6657
    -48.00     -0.6799     -0.6799
    -47.00     -0.6938     -0.6938
    -46.00     -0.7076     -0.7076
    -45.00     -0.7227     -0.7227
    -44.00     -0.7401     -0.7401
    -43.00     -0.7591     -0.7591
    -42.00     -0.7779     -0.7779
    -41.00     -0.7960     -0.7960
    -40.00     -0.8140     -0.8140
    -39.00     -0.8320     -0.8320
    -38.00     -0.8498     -0.8498
    -37.00     -0.8675     -0.8675
    -36.00     -0.8856     -0.8856
    -35.00     -0.9030     -0.9030
    -34.00     -0.9208     -0.9208
    -33.00     -0.9429     -0.9429
    -32.00     -0.9745     -0.9745
    -31.00     -1.0147     -1.0147
    -30.00     -1.0579     -1.0579
    -29.00     -1.1041     -1.1041
    -28.00     -1.1452     -1.1452
    -27.00     -1.1507     -1.1507
    -26.00     -1.1513     -1.1513
    -25.00     -1.1514     -1.1514
    -24.00     -1.1498     -1.1498
    -23.00     -1.1467     -1.1467
    -22.00     -1.1420     -1.1420
    -21.00     -1.1381     -1.1381
    -20.00     -1.1367     -1.1367
    -19.00     -1.1344     -1.1344
    -18.00     -1.1315     -1.1315
    -17.00     -1.1251     -1.1251
    -16.00     -1.1183     -1.1183
    -15.00     -1.1132     -1.1132
    -14.00     -1.1075     -1.1075
    -13.00     -1.0967     -1.0967
    -12.00     -1.0779     -1.0779
    -11.00     -1.0004     -1.0004
    -10.00     -0.9155     -0.9155
     -9.00     -0.8033     -0.8033
     -8.00     -0.6905     -0.6905
     -7.00     -0.5717     -0.5717
     -6.00     -0.4495     -0.4495
     -5.00     -0.3134     -0.3134
     -4.00     -0.1752     -0.1752
     -3.00     -0.0332     -0.0332
     -2.00      0.1089      0.1089
     -1.00      0.2500      0.2500
      0.00      0.3893      0.3893
      1.00      0.5269      0.5269
      2.00      0.6623      0.6623
      3.00      0.7959      0.7959
      4.00      0.9280      0.9280
      5.00      1.0579      1.0579
      6.00      1.1857      1.1857
      7.00      1.3113      1.3113
      8.00      1.4330      1.4330
      9.00      1.5506      1.5506
     10.00      1.6632      1.6632
     11.00      1.7670      1.7670
     12.00      1.8595      1.8595
     13.00      1.9362      1.9362
     14.00      1.9826      1.9826
     15.00      2.0042      2.0042
     16.00      2.0043      2.0043
     17.00      1.9797      1.9797
     18.00      1.9505      1.9505
     19.00      1.8719      1.8719
     20.00      1.7924      1.7924
     21.00      1.7280      1.7280
     22.00      1.6656      1.6656
     23.00      1.6030      1.6030
     24.00      1.5416      1.5416
     25.00      1.5143      1.5143
     26.00      1.4863      1.4863
     27.00      1.4572      1.4572
     28.00      1.4284      1.4284
     29.00      1.4126      1.4126
     30.00      1.3965      1.3965
     31.00      1.3783      1.3783
     32.00      1.3586      1.3586
     33.00      1.3370      1.3370
     34.00      1.3117      1.3117
     35.00      1.2837      1.2837
     36.00      1.2564      1.2564
     37.00      1.2311      1.2311
     38.00      1.2065      1.2065
     39.00      1.1818      1.1818
     40.00      1.1570      1.1570
     41.00      1.1323      1.1323
     42.00      1.1075      1.1075
     43.00      1.0819      1.0819
     44.00      1.0563      1.0563
     45.00      1.0324      1.0324
     46.00      1.0111      1.0111
     47.00      0.9912      0.9912
     48.00      0.9713      0.9713
     49.00      0.9510      0.9510
     50.00      0.9307      0.9307
     51.00      0.9103      0.9103
     52.00      0.8897      0.8897
     53.00      0.8690      0.8690
     54.00      0.8481      0.8481
     55.00      0.8271      0.8271
     56.00      0.8059      0.8059
     57.00      0.7845      0.7845
     58.00      0.7627      0.7627
     59.00      0.7406      0.7406
     60.00      0.7182      0.7182
     61.00      0.6957      0.6957
     62.00      0.6730      0.6730
     63.00      0.6502      0.6502
     64.00      0.6271      0.6271
     65.00      0.6039      0.6039
     66.00      0.5805      0.5805
     67.00      0.5568      0.5568
     68.00      0.5330      0.5330
     69.00      0.5090      0.5090
     70.00      0.4848      0.4848
     71.00      0.4605      0.4605
     72.00      0.4360      0.4360
     73.00      0.4115      0.4115
     74.00      0.3869      0.3869
     75.00      0.3623      0.3623
     76.00      0.3377      0.3377
     77.00      0.3129      0.3129
     78.00      0.2883      0.2883
     79.00      0.2636      0.2636
     80.00      0.2389      0.2389
     81.00      0.2143      0.2143
     82.00      0.1899      0.1899
     83.00      0.1656      0.1656
     84.00      0.1414      0.1414
     85.00      0.1174      0.1174
     86.00      0.0935      0.0935
     87.00      0.0699      0.0699
     88.00      0.0455      0.0455
     89.00      0.0214      0.0214
     90.00      0.0000      0.0000
     91.00     -0.0175     -0.0175
     92.00     -0.0332     -0.0332
     93.00     -0.0489     -0.0489
     94.00     -0.0655     -0.0655
     95.00     -0.0822     -0.0822
     96.00     -0.0990     -0.0990
     97.00     -0.1159     -0.1159
     98.00     -0.1329     -0.1329
     99.00     -0.1500     -0.1500
    100.00     -0.1672     -0.1672
    101.00     -0.1845     -0.1845
    102.00     -0.2018     -0.2018
    103.00     -0.2191     -0.2191
    104.00     -0.2364     -0.2364
    105.00     -0.2536     -0.2536
    106.00     -0.2709     -0.2709
    107.00     -0.2881     -0.2881
    108.00     -0.3052     -0.3052
    109.00     -0.3223     -0.3223
    110.00     -0.3394     -0.3394
    111.00     -0.3563     -0.3563
    112.00     -0.3731     -0.3731
    113.00     -0.3898     -0.3898
    114.00     -0.4063     -0.4063
    115.00     -0.4227     -0.4227
    116.00     -0.4390     -0.4390
    117.00     -0.4551     -0.4551
    118.00     -0.4711     -0.4711
    119.00     -0.4870     -0.4870
    120.00     -0.5028     -0.5028
    121.00     -0.5184     -0.5184
    122.00     -0.5339     -0.5339
    123.00     -0.5491     -0.5491
    124.00     -0.5642     -0.5642
    125.00     -0.5790     -0.5790
    126.00     -0.5937     -0.5937
    127.00     -0.6083     -0.6083
    128.00     -0.6228     -0.6228
    129.00     -0.6372     -0.6372
    130.00     -0.6515     -0.6515
    131.00     -0.6657     -0.6657
    132.00     -0.6799     -0.6799
    133.00     -0.6941     -0.6941
    134.00     -0.7084     -0.7084
    135.00     -0.7227     -0.7227
    136.00     -0.7372     -0.7372
    137.00     -0.7518     -0.7518
    138.00     -0.7665     -0.7665
    139.00     -0.7813     -0.7813
    140.00     -0.7963     -0.7963
    141.00     -0.8114     -0.8114
    142.00     -0.8267     -0.8267
    143.00     -0.8421     -0.8421
    144.00     -0.8582     -0.8582
    145.00     -0.8792     -0.8792
    146.00     -0.9008     -0.9008
    147.00     -0.9108     -0.9108
    148.00     -0.9044     -0.9044
    149.00     -0.8890     -0.8890
    150.00     -0.8703     -0.8703
    151.00     -0.8460     -0.8460
    152.00     -0.8146     -0.8146
    153.00     -0.7833     -0.7833
    154.00     -0.7543     -0.7543
    155.00     -0.7253     -0.7253
    156.00     -0.6962     -0.6962
    157.00     -0.6672     -0.6672
    158.00     -0.6382     -0.6382
    159.00     -0.6092     -0.6092
    160.00     -0.5802     -0.5802
    161.00     -0.5512     -0.5512
    162.00     -0.5222     -0.5222
    163.00     -0.4932     -0.4932
    164.00     -0.4642     -0.4642
    165.00     -0.4352     -0.4352
    166.00     -0.4061     -0.4061
    167.00     -0.3771     -0.3771
    168.00     -0.3481     -0.3481
    169.00     -0.3191     -0.3191
    170.00     -0.2901     -0.2901
    171.00     -0.2611     -0.2611
    172.00     -0.2321     -0.2321
    173.00     -0.2031     -0.2031
    174.00     -0.1741     -0.1741
    175.00     -0.1451     -0.1451
    176.00     -0.1160     -0.1160
    177.00     -0.0870     -0.0870
    178.00     -0.0580     -0.0580
    179.00     -0.0290     -0.0290
    180.00      0.0000      0.0000
                0.0000      1.0000
   -180.00      0.0267      0.0267
   -179.00      0.0269      0.0269
   -178.00      0.0274      0.0274
   -177.00      0.0279      0.0279
   -176.00      0.0287      0.0287
   -175.00      0.0297      0.0297
   -174.00      0.0310      0.0310
   -173.00      0.0323      0.0323
   -172.00      0.0340      0.0340
   -171.00      0.0359      0.0359
   -170.00      0.0384      0.0384
   -169.00      0.0415      0.0415
   -168.00      0.0457      0.0457
   -167.00      0.0527      0.0527
   -166.00      0.0625      0.0625
   -165.00      0.0733      0.0733
   -164.00      0.0846      0.0846
   -163.00      0.0970      0.0970
   -162.00      0.1101      0.1101
   -161.00      0.1237      0.1237
   -160.00      0.1381      0.1381
   -159.00      0.1531      0.1531
   -158.00      0.1686      0.1686
   -157.00      0.1848      0.1848
   -156.00      0.2015      0.2015
   -155.00      0.2187      0.2187
   -154.00      0.2364      0.2364
   -153.00      0.2546      0.2546
   -152.00      0.2732      0.2732
   -151.00      0.2924      0.2924
   -150.00      0.3119      0.3119
   -149.00      0.3320      0.3320
   -148.00      0.3525      0.3525
   -147.00      0.3733      0.3733
   -146.00      0.3942      0.3942
   -145.00      0.4154      0.4154
   -144.00      0.4369      0.4369
   -143.00      0.4588      0.4588
   -142.00      0.4810      0.4810
   -141.00      0.5033      0.5033
   -140.00      0.5258      0.5258
   -139.00      0.5483      0.5483
   -138.00      0.5709      0.5709
   -137.00      0.5936      0.5936
   -136.00      0.6164      0.6164
   -135.00      0.6392      0.6392
   -134.00      0.6620      0.6620
   -133.00      0.6849      0.6849
   -132.00      0.7077      0.7077
   -131.00      0.7303      0.7303
   -130.00      0.7528      0.7528
   -129.00      0.7752      0.7752
   -128.00      0.7974      0.7974
   -127.00      0.8195      0.8195
   -126.00      0.8414      0.8414
   -125.00      0.8632      0.8632
   -124.00      0.8848      0.8848
   -123.00      0.9060      0.9060
   -122.00      0.9266      0.9266
   -121.00      0.9469      0.9469
   -120.00      0.9668      0.9668
   -119.00      0.9863      0.9863
   -118.00      1.0054      1.0054
   -117.00      1.0241      1.0241
   -116.00      1.0425      1.0425
   -115.00      1.0605      1.0605
   -114.00      1.0780      1.0780
   -113.00      1.0950      1.0950
   -112.00      1.1115      1.1115
   -111.00      1.1273      1.1273
   -110.00      1.1421      1.1421
   -109.00      1.1563      1.1563
   -108.00      1.1699      1.1699
   -107.00      1.1830      1.1830
   -106.00      1.1956      1.1956
   -105.00      1.2076      1.2076
   -104.00      1.2191      1.2191
   -103.00      1.2300      1.2300
   -102.00      1.2400      1.2400
   -101.00      1.2491      1.2491
   -100.00      1.2575      1.2575
    -99.00      1.2649      1.2649
    -98.00      1.2715      1.2715
    -97.00      1.2774      1.2774
    -96.00      1.2826      1.2826
    -95.00      1.2871      1.2871
    -94.00      1.2912      1.2912
    -93.00      1.2943      1.2943
    -92.00      1.2969      1.2969
    -91.00      1.2991      1.2991
    -90.00      1.3000      1.3000
    -89.00      1.2991      1.2991
    -88.00      1.2969      1.2969
    -87.00      1.2943      1.2943
    -86.00      1.2912      1.2912
    -85.00      1.2871      1.2871
    -84.00      1.2826      1.2826
    -83.00      1.2774      1.2774
    -82.00      1.2715      1.2715
    -81.00      1.2649      1.2649
    -80.00      1.2575      1.2575
    -79.00      1.2491      1.2491
    -78.00      1.2400      1.2400
    -77.00      1.2300      1.2300
    -76.00      1.2191      1.2191
    -75.00      1.2076      1.2076
    -74.00      1.1956      1.1956
    -73.00      1.1830      1.1830
    -72.00      1.1699      1.1699
    -71.00      1.1563      1.1563
    -70.00      1.1421      1.1421
    -69.00      1.1273      1.1273
    -68.00      1.1115      1.1115
    -67.00      1.0950      1.0950
    -66.00      1.0780      1.0780
    -65.00      1.0605      1.0605
    -64.00      1.0425      1.0425
    -63.00      1.0241      1.0241
    -62.00      1.0054      1.0054
    -61.00      0.9863      0.9863
    -60.00      0.9668      0.9668
    -59.00      0.9469      0.9469
    -58.00      0.9266      0.9266
    -57.00      0.9060      0.9060
    -56.00      0.8848      0.8848
    -55.00      0.8632      0.8632
    -54.00      0.8414      0.8414
    -53.00      0.8195      0.8195
    -52.00      0.7974      0.7974
    -51.00      0.7752      0.7752
    -50.00      0.7528      0.7528
    -49.00      0.7303      0.7303
    -48.00      0.7077      0.7077
    -47.00      0.6849      0.6849
    -46.00      0.6620      0.6620
    -45.00      0.6392      0.6392
    -44.00      0.6164      0.6164
    -43.00      0.5936      0.5936
    -42.00      0.5709      0.5709
    -41.00      0.5483      0.5483
    -40.00      0.5258      0.5258
    -39.00      0.5033      0.5033
    -38.00      0.4810      0.4810
    -37.00      0.4588      0.4588
    -36.00      0.4369      0.4369
    -35.00      0.4163      0.4163
    -34.00      0.3961      0.3961
    -33.00      0.3733      0.3733
    -32.00      0.3460      0.3460
    -31.00      0.3151      0.3151
    -30.00      0.2827      0.2827
    -29.00      0.2485      0.2485
    -28.00      0.2166      0.2166
    -27.00      0.1996      0.1996
    -26.00      0.1845      0.1845
    -25.00      0.1695      0.1695
    -24.00      0.1545      0.1545
    -23.00      0.1417      0.1417
    -22.00      0.1291      0.1291
    -21.00      0.1166      0.1166
    -20.00      0.1040      0.1040
    -19.00      0.0931      0.0931
    -18.00      0.0827      0.0827
    -17.00      0.0735      0.0735
    -16.00      0.0644      0.0644
    -15.00      0.0563      0.0563
    -14.00      0.0484      0.0484
    -13.00      0.0413      0.0413
    -12.00      0.0346      0.0346
    -11.00      0.0297      0.0297
    -10.00      0.0250      0.0250
     -9.00      0.0220      0.0220
     -8.00      0.0192      0.0192
     -7.00      0.0171      0.0171
     -6.00      0.0153      0.0153
     -5.00      0.0141      0.0141
     -4.00      0.0131      0.0131
     -3.00      0.0126      0.0126
     -2.00      0.0122      0.0122
     -1.00      0.0120      0.0120
      0.00      0.0119      0.0119
      1.00      0.0120      0.0120
      2.00      0.0121      0.0121
      3.00      0.0123      0.0123
      4.00      0.0126      0.0126
      5.00      0.0129      0.0129
      6.00      0.0134      0.0134
      7.00      0.0139      0.0139
      8.00      0.0146      0.0146
      9.00      0.0155      0.0155
     10.00      0.0165      0.0165
     11.00      0.0179      0.0179
     12.00      0.0198      0.0198
     13.00      0.0226      0.0226
     14.00      0.0274      0.0274
     15.00      0.0339      0.0339
     16.00      0.0433      0.0433
     17.00      0.0558      0.0558
     18.00      0.0688      0.0688
     19.00      0.0872      0.0872
     20.00      0.1062      0.1062
     21.00      0.1275      0.1275
     22.00      0.1490      0.1490
     23.00      0.1706      0.1706
     24.00      0.1917      0.1917
     25.00      0.2122      0.2122
     26.00      0.2326      0.2326
     27.00      0.2530      0.2530
     28.00      0.2734      0.2734
     29.00      0.2931      0.2931
     30.00      0.3128      0.3128
     31.00      0.3327      0.3327
     32.00      0.3529      0.3529
     33.00      0.3733      0.3733
     34.00      0.3942      0.3942
     35.00      0.4154      0.4154
     36.00      0.4369      0.4369
     37.00      0.4588      0.4588
     38.00      0.4810      0.4810
     39.00      0.5033      0.5033
     40.00      0.5258      0.5258
     41.00      0.5483      0.5483
     42.00      0.5709      0.5709
     43.00      0.5936      0.5936
     44.00      0.6164      0.6164
     45.00      0.6392      0.6392
     46.00      0.6620      0.6620
     47.00      0.6849      0.6849
     48.00      0.7077      0.7077
     49.00      0.7303      0.7303
     50.00      0.7528      0.7528
     51.00      0.7752      0.7752
     52.00      0.7974      0.7974
     53.00      0.8195      0.8195
     54.00      0.8414      0.8414
     55.00      0.8632      0.8632
     56.00      0.8848      0.8848
     57.00      0.9060      0.9060
     58.00      0.9266      0.9266
     59.00      0.9469      0.9469
     60.00      0.9668      0.9668
     61.00      0.9863      0.9863
     62.00      1.0054      1.0054
     63.00      1.0241      1.0241
     64.00      1.0425      1.0425
     65.00      1.0605      1.0605
     66.00      1.0780      1.0780
     67.00      1.0950      1.0950
     68.00      1.1115      1.1115
     69.00      1.1273      1.1273
     70.00      1.1421      1.1421
     71.00      1.1563      1.1563
     72.00      1.1699      1.1699
     73.00      1.1830      1.1830
     74.00      1.1956      1.1956
     75.00      1.2076      1.2076
     76.00      1.2191      1.2191
     77.00      1.2300      1.2300
     78.00      1.2400      1.2400
     79.00      1.2491      1.2491
     80.00      1.2575      1.2575
     81.00      1.2649      1.2649
     82.00      1.2715      1.2715
     83.00      1.2774      1.2774
     84.00      1.2826      1.2826
     85.00      1.2871      1.2871
     86.00      1.2912      1.2912
     87.00      1.2943      1.2943
     88.00      1.2969      1.2969
     89.00      1.2991      1.2991
     90.00      1.3000      1.3000
     91.00      1.2991      1.2991
     92.00      1.2969      1.2969
     93.00      1.2943      1.2943
     94.00      1.2912      1.2912
     95.00      1.2871      1.2871
     96.00      1.2826      1.2826
     97.00      1.2774      1.2774
     98.00      1.2715      1.2715
     99.00      1.2649      1.2649
    100.00      1.2575      1.2575
    101.00      1.2491      1.2491
    102.00      1.2400      1.2400
    103.00      1.2300      1.2300
    104.00      1.2191      1.2191
    105.00      1.2076      1.2076
    106.00      1.1956      1.1956
    107.00      1.1830      1.1830
    108.00      1.1699      1.1699
    109.00      1.1563      1.1563
    110.00      1.1421      1.1421
    111.00      1.1273      1.1273
    112.00      1.1115      1.1115
    113.00      1.0950      1.0950
    114.00      1.0780      1.0780
    115.00      1.0605      1.0605
    116.00      1.0425      1.0425
    117.00      1.0241      1.0241
    118.00      1.0054      1.0054
    119.00      0.9863      0.9863
    120.00      0.9668      0.9668
    121.00      0.9469      0.9469
    122.00      0.9266      0.9266
    123.00      0.9060      0.9060
    124.00      0.8848      0.8848
    125.00      0.8632      0.8632
    126.00      0.8414      0.8414
    127.00      0.8195      0.8195
    128.00      0.7974      0.7974
    129.00      0.7752      0.7752
    130.00      0.7528      0.7528
    131.00      0.7303      0.7303
    132.00      0.7077      0.7077
    133.00      0.6849      0.6849
    134.00      0.6620      0.6620
    135.00      0.6392      0.6392
    136.00      0.6164      0.6164
    137.00      0.5936      0.5936
    138.00      0.5709      0.5709
    139.00      0.5483      0.5483
    140.00      0.5258      0.5258
    141.00      0.5033      0.5033
    142.00      0.4810      0.4810
    143.00      0.4588      0.4588
    144.00      0.4369      0.4369
    145.00      0.4154      0.4154
    146.00      0.3942      0.3942
    147.00      0.3733      0.3733
    148.00      0.3525      0.3525
    149.00      0.3320      0.3320
    150.00      0.3119      0.3119
    151.00      0.2924      0.2924
    152.00      0.2732      0.2732
    153.00      0.2546      0.2546
    154.00      0.2364      0.2364
    155.00      0.2187      0.2187
    156.00      0.2015      0.2015
    157.00      0.1848      0.1848
    158.00      0.1686      0.1686
    159.00      0.1531      0.1531
    160.00      0.1381      0.1381
    161.00      0.1237      0.1237
    162.00      0.1101      0.1101
    163.00      0.0970      0.0970
    164.00      0.0846      0.0846
    165.00      0.0733      0.0733
    166.00      0.0625      0.0625
    167.00      0.0527      0.0527
    168.00      0.0457      0.0457
    169.00      0.0415      0.0415
    170.00      0.0384      0.0384
    171.00      0.0359      0.0359
    172.00      0.0340      0.0340
    173.00      0.0323      0.0323
    174.00      0.0310      0.0310
    175.00      0.0297      0.0297
    176.00      0.0287      0.0287
    177.00      0.0279      0.0279
    178.00      0.0274      0.0274
    179.00      0.0269      0.0269
    180.00      0.0267      0.0267
                0.0000      1.0000
   -180.00      0.0000      0.0000
   -179.00      0.0400      0.0400
   -178.00      0.0800      0.0800
   -177.00      0.1200      0.1200
   -176.00      0.1600      0.1600
   -175.00      0.2000      0.2000
   -174.00      0.2400      0.2400
   -173.00      0.2843      0.2843
   -172.00      0.3285      0.3285
   -171.00      0.3600      0.3600
   -170.00      0.3797      0.3797
   -169.00      0.3950      0.3950
   -168.00      0.4022      0.4022
   -167.00      0.4038      0.4038
   -166.00      0.4047      0.4047
   -165.00      0.4056      0.4056
   -164.00      0.4066      0.4066
   -163.00      0.4076      0.4076
   -162.00      0.4089      0.4089
   -161.00      0.4111      0.4111
   -160.00      0.4144      0.4144
   -159.00      0.4185      0.4185
   -158.00      0.4245      0.4245
   -157.00      0.4325      0.4325
   -156.00      0.4404      0.4404
   -155.00      0.4478      0.4478
   -154.00      0.4553      0.4553
   -153.00      0.4624      0.4624
   -152.00      0.4704      0.4704
   -151.00      0.4781      0.4781
   -150.00      0.4815      0.4815
   -149.00      0.4799      0.4799
   -148.00      0.4763      0.4763
   -147.00      0.4723      0.4723
   -146.00      0.4685      0.4685
   -145.00      0.4643      0.4643
   -144.00      0.4602      0.4602
   -143.00      0.4561      0.4561
   -142.00      0.4519      0.4519
   -141.00      0.4483      0.4483
   -140.00      0.4453      0.4453
   -139.00      0.4427      0.4427
   -138.00      0.4403      0.4403
   -137.00      0.4382      0.4382
   -136.00      0.4363      0.4363
   -135.00      0.4345      0.4345
   -134.00      0.4324      0.4324
   -133.00      0.4303      0.4303
   -132.00      0.4287      0.4287
   -131.00      0.4276      0.4276
   -130.00      0.4267      0.4267
   -129.00      0.4261      0.4261
   -128.00      0.4256      0.4256
   -127.00      0.4253      0.4253
   -126.00      0.4252      0.4252
   -125.00      0.4252      0.4252
   -124.00      0.4253      0.4253
   -123.00      0.4254      0.4254
   -122.00      0.4255      0.4255
   -121.00      0.4257      0.4257
   -120.00      0.4258      0.4258
   -119.00      0.4261      0.4261
   -118.00      0.4264      0.4264
   -117.00      0.4267      0.4267
   -116.00      0.4271      0.4271
   -115.00      0.4275      0.4275
   -114.00      0.4279      0.4279
   -113.00      0.4284      0.4284
   -112.00      0.4289      0.4289
   -111.00      0.4291      0.4291
   -110.00      0.4291      0.4291
   -109.00      0.4289      0.4289
   -108.00      0.4288      0.4288
   -107.00      0.4286      0.4286
   -106.00      0.4283      0.4283
   -105.00      0.4280      0.4280
   -104.00      0.4277      0.4277
   -103.00      0.4274      0.4274
   -102.00      0.4269      0.4269
   -101.00      0.4263      0.4263
   -100.00      0.4255      0.4255
    -99.00      0.4245      0.4245
    -98.00      0.4233      0.4233
    -97.00      0.4219      0.4219
    -96.00      0.4204      0.4204
    -95.00      0.4189      0.4189
    -94.00      0.4173      0.4173
    -93.00      0.4158      0.4158
    -92.00      0.4143      0.4143
    -91.00      0.4129      0.4129
    -90.00      0.4111      0.4111
    -89.00      0.4084      0.4084
    -88.00      0.4050      0.4050
    -87.00      0.4015      0.4015
    -86.00      0.3983      0.3983
    -85.00      0.3951      0.3951
    -84.00      0.3919      0.3919
    -83.00      0.3886      0.3886
    -82.00      0.3853      0.3853
    -81.00      0.3819      0.3819
    -80.00      0.3782      0.3782
    -79.00      0.3745      0.3745
    -78.00      0.3706      0.3706
    -77.00      0.3665      0.3665
    -76.00      0.3624      0.3624
    -75.00      0.3582      0.3582