IEA-15-240-RWT_AeroDyn15_Polar_06; 2 361 2 361 2 361
                0.0000      1.0000
   -180.00      0.0000      0.0000
   -179.00      0.0429      0.0429
   -178.00      0.0859      0.0859
   -177.00      0.1291      0.1291
   -176.00      0.1725      0.1725
   -175.00      0.2161      0.2161
   -174.00      0.2597      0.2597
   -173.00      0.3032      0.3032
   -172.00      0.3468      0.3468
   -171.00      0.3903      0.3903
   -170.00      0.4338      0.4338
   -169.00      0.4772      0.4772
   -168.00      0.5206      0.5206
   -167.00      0.5640      0.5640
   -166.00      0.6074      0.6074
   -165.00      0.6507      0.6507
   -164.00      0.6957      0.6957
   -163.00      0.7407      0.7407
   -162.00      0.7809      0.7809
   -161.00      0.8187      0.8187
   -160.00      0.8531      0.8531
   -159.00      0.8738      0.8738
   -158.00      0.8818      0.8818
   -157.00      0.8871      0.8871
   -156.00      0.8924      0.8924
   -155.00      0.8986      0.8986
   -154.00      0.9048      0.9048
   -153.00      0.9110      0.9110
   -152.00      0.9186      0.9186
   -151.00      0.9262      0.9262
   -150.00      0.9296      0.9296
   -149.00      0.9069      0.9069
   -148.00      0.8604      0.8604
   -147.00      0.8226      0.8226
   -146.00      0.8035      0.8035
   -145.00      0.7884      0.7884
   -144.00      0.7728      0.7728
   -143.00      0.7546      0.7546
   -142.00      0.7360      0.7360
   -141.00      0.7185      0.7185
   -140.00      0.7028      0.7028
   -139.00      0.6880      0.6880
   -138.00      0.6738      0.6738
   -137.00      0.6601      0.6601
   -136.00      0.6468      0.6468
   -135.00      0.6335      0.6335
   -134.00      0.6199      0.6199
   -133.00      0.6062      0.6062
   -132.00      0.5924      0.5924
   -131.00      0.5787      0.5787
   -130.00      0.5650      0.5650
   -129.00      0.5513      0.5513
   -128.00      0.5376      0.5376
   -127.00      0.5240      0.5240
   -126.00      0.5104      0.5104
   -125.00      0.4968      0.4968
   -124.00      0.4832      0.4832
   -123.00      0.4697      0.4697
   -122.00      0.4564      0.4564
   -121.00      0.4433      0.4433
   -120.00      0.4297      0.4297
   -119.00      0.4154      0.4154
   -118.00      0.4008      0.4008
   -117.00      0.3862      0.3862
   -116.00      0.3718      0.3718
   -115.00      0.3574      0.3574
   -114.00      0.3431      0.3431
   -113.00      0.3289      0.3289
   -112.00      0.3147      0.3147
   -111.00      0.3004      0.3004
   -110.00      0.2860      0.2860
   -109.00      0.2715      0.2715
   -108.00      0.2570      0.2570
   -107.00      0.2423      0.2423
   -106.00      0.2276      0.2276
   -105.00      0.2129      0.2129
   -104.00      0.1982      0.1982
   -103.00      0.1835      0.1835
   -102.00      0.1689      0.1689
   -101.00      0.1544      0.1544
   -100.00      0.1400      0.1400
    -99.00      0.1258      0.1258
    -98.00      0.1120      0.1120
    -97.00      0.0984      0.0984
    -96.00      0.0847      0.0847
    -95.00      0.0708      0.0708
    -94.00      0.0568      0.0568
    -93.00      0.0428      0.0428
    -92.00      0.0286      0.0286
    -91.00      0.0143      0.0143
    -90.00      0.0000      0.0000
    -89.00     -0.0143     -0.0143
    -88.00     -0.0286     -0.0286
    -87.00     -0.0428     -0.0428
    -86.00     -0.0568     -0.0568
    -85.00     -0.0708     -0.0708
    -84.00     -0.0847     -0.0847
    -83.00     -0.0984     -0.0984
    -82.00     -0.1120     -0.1120
    -81.00     -0.1258     -0.1258
    -80.00     -0.1400     -0.1400
    -79.00     -0.1544     -0.1544
    -78.00     -0.1689     -0.1689
    -77.00     -0.1835     -0.1835
    -76.00     -0.1982     -0.1982
    -75.00     -0.2129     -0.2129
    -74.00     -0.2276     -0.2276
    -73.00     -0.2423     -0.2423
    -72.00     -0.2569     -0.2569
    -71.00     -0.2715     -0.2715
    -70.00     -0.2860     -0.2860
    -69.00     -0.3004     -0.3004
    -68.00     -0.3147     -0.3147
    -67.00     -0.3288     -0.3288
    -66.00     -0.3430     -0.3430
    -65.00     -0.3573     -0.3573
    -64.00     -0.3717     -0.3717
    -63.00     -0.3861     -0.3861
    -62.00     -0.4007     -0.4007
    -61.00     -0.4153     -0.4153
    -60.00     -0.4295     -0.4295
    -59.00     -0.4431     -0.4431
    -58.00     -0.4563     -0.4563
    -57.00     -0.4696     -0.4696
    -56.00     -0.4831     -0.4831
    -55.00     -0.4967     -0.4967
    -54.00     -0.5103     -0.5103
    -53.00     -0.5239     -0.5239
    -52.00     -0.5376     -0.5376
    -51.00     -0.5513     -0.5513
    -50.00     -0.5650     -0.5650
    -49.00     -0.5787     -0.5787
    -48.00     -0.5924     -0.5924
    -47.00     -0.6052     -0.6052
    -46.00     -0.6179     -0.6179
    -45.00     -0.6335     -0.6335
    -44.00     -0.6557     -0.6557
    -43.00     -0.6833     -0.6833
    -42.00     -0.7113     -0.7113
    -41.00     -0.7380     -0.7380
    -40.00     -0.7652     -0.7652
    -39.00     -0.7934     -0.7934
    -38.00     -0.8235     -0.8235
    -37.00     -0.8546     -0.8546
    -36.00     -0.8853     -0.8853
    -35.00     -0.9150     -0.9150
    -34.00     -0.9442     -0.9442
    -33.00     -0.9726     -0.9726
    -32.00     -1.0036     -1.0036
    -31.00     -1.0339     -1.0339
    -30.00     -1.0525     -1.0525
    -29.00     -1.0593     -1.0593
    -28.00     -1.0683     -1.0683
    -27.00     -1.0956     -1.0956
    -26.00     -1.1254     -1.1254
    -25.00     -1.1550     -1.1550
    -24.00     -1.1752     -1.1752
    -23.00     -1.1978     -1.1978
    -22.00     -1.2212     -1.2212
    -21.00     -1.2317     -1.2317
    -20.00     -1.2362     -1.2362
    -19.00     -1.2117     -1.2117
    -18.00     -1.1966     -1.1966
    -17.00     -1.1739     -1.1739
    -16.00     -1.1094     -1.1094
    -15.00     -1.0501     -1.0501
    -14.00     -0.9827     -0.9827
    -13.00     -0.9193     -0.9193
    -12.00     -0.8480     -0.8480
    -11.00     -0.7715     -0.7715
    -10.00     -0.7087     -0.7087
     -9.00     -0.6142     -0.6142
     -8.00     -0.4959     -0.4959
     -7.00     -0.3788     -0.3788
     -6.00     -0.2602     -0.2602
     -5.00     -0.1442     -0.1442
     -4.00     -0.0381     -0.0381
     -3.00      0.0682      0.0682
     -2.00      0.1794      0.1794
     -1.00      0.2843      0.2843
      0.00      0.3825      0.3825
      1.00      0.4874      0.4874
      2.00      0.5931      0.5931
      3.00      0.6984      0.6984
      4.00      0.8031      0.8031
      5.00      0.9072      0.9072
      6.00      1.0105      1.0105
      7.00      1.1132      1.1132
      8.00      1.2146      1.2146
      9.00      1.3147      1.3147
     10.00      1.4044      1.4044
     11.00      1.4878      1.4878
     12.00      1.5584      1.5584
     13.00      1.6385      1.6385
     14.00      1.7224      1.7224
     15.00      1.7988      1.7988
     16.00      1.8673      1.8673
     17.00      1.9156      1.9156
     18.00      1.9158      1.9158
     19.00      1.8853      1.8853
     20.00      1.8552      1.8552
     21.00      1.8202      1.8202
     22.00      1.7970      1.7970
     23.00      1.7865      1.7865
     24.00      1.7780      1.7780
     25.00      1.7493      1.7493
     26.00      1.6986      1.6986
     27.00      1.6465      1.6465
     28.00      1.5889      1.5889
     29.00      1.5135      1.5135
     30.00      1.4489      1.4489
     31.00      1.3982      1.3982
     32.00      1.3521      1.3521
     33.00      1.3101      1.3101
     34.00      1.2730      1.2730
     35.00      1.2389      1.2389
     36.00      1.2042      1.2042
     37.00      1.1666      1.1666
     38.00      1.1283      1.1283
     39.00      1.0918      1.0918
     40.00      1.0581      1.0581
     41.00      1.0259      1.0259
     42.00      0.9943      0.9943
     43.00      0.9614      0.9614
     44.00      0.9289      0.9289
     45.00      0.9015      0.9015
     46.00      0.8807      0.8807
     47.00      0.8629      0.8629
     48.00      0.8450      0.8450
     49.00      0.8260      0.8260
     50.00      0.8068      0.8068
     51.00      0.7876      0.7876
     52.00      0.7682      0.7682
     53.00      0.7486      0.7486
     54.00      0.7291      0.7291
     55.00      0.7097      0.7097
     56.00      0.6903      0.6903
     57.00      0.6710      0.6710
     58.00      0.6521      0.6521
     59.00      0.6333      0.6333
     60.00      0.6139      0.6139
     61.00      0.5935      0.5935
     62.00      0.5726      0.5726
     63.00      0.5517      0.5517
     64.00      0.5311      0.5311
     65.00      0.5106      0.5106
     66.00      0.4902      0.4902
     67.00      0.4698      0.4698
     68.00      0.4496      0.4496
     69.00      0.4292      0.4292
     70.00      0.4086      0.4086
     71.00      0.3879      0.3879
     72.00      0.3671      0.3671
     73.00      0.3462      0.3462
     74.00      0.3252      0.3252
     75.00      0.3042      0.3042
     76.00      0.2832      0.2832
     77.00      0.2622      0.2622
     78.00      0.2413      0.2413
     79.00      0.2206      0.2206
     80.00      0.2000      0.2000
     81.00      0.1798      0.1798
     82.00      0.1600      0.1600
     83.00      0.1406      0.1406
     84.00      0.1210      0.1210
     85.00      0.1012      0.1012
     86.00      0.0812      0.0812
     87.00      0.0612      0.0612
     88.00      0.0401      0.0401
     89.00      0.0188      0.0188
     90.00      0.0000      0.0000
     91.00     -0.0154     -0.0154
     92.00     -0.0292     -0.0292
     93.00     -0.0428     -0.0428
     94.00     -0.0568     -0.0568
     95.00     -0.0708     -0.0708
     96.00     -0.0847     -0.0847
     97.00     -0.0984     -0.0984
     98.00     -0.1120     -0.1120
     99.00     -0.1258     -0.1258
    100.00     -0.1400     -0.1400
    101.00     -0.1544     -0.1544
    102.00     -0.1689     -0.1689
    103.00     -0.1835     -0.1835
    104.00     -0.1982     -0.1982
    105.00     -0.2129     -0.2129
    106.00     -0.2276     -0.2276
    107.00     -0.2423     -0.2423
    108.00     -0.2569     -0.2569
    109.00     -0.2715     -0.2715
    110.00     -0.2860     -0.2860
    111.00     -0.3004     -0.3004
    112.00     -0.3147     -0.3147
    113.00     -0.3288     -0.3288
    114.00     -0.3430     -0.3430
    115.00     -0.3573     -0.3573
    116.00     -0.3717     -0.3717
    117.00     -0.3860     -0.3860
    118.00     -0.4006     -0.4006
    119.00     -0.4153     -0.4153
    120.00     -0.4295     -0.4295
    121.00     -0.4431     -0.4431
    122.00     -0.4563     -0.4563
    123.00     -0.4696     -0.4696
    124.00     -0.4831     -0.4831
    125.00     -0.4967     -0.4967
    126.00     -0.5103     -0.5103
    127.00     -0.5239     -0.5239
    128.00     -0.5376     -0.5376
    129.00     -0.5513     -0.5513
    130.00     -0.5650     -0.5650
    131.00     -0.5787     -0.5787
    132.00     -0.5924     -0.5924
    133.00     -0.6062     -0.6062
    134.00     -0.6199     -0.6199
    135.00     -0.6335     -0.6335
    136.00     -0.6468     -0.6468
    137.00     -0.6601     -0.6601
    138.00     -0.6738     -0.6738
    139.00     -0.6880     -0.6880
    140.00     -0.7027     -0.7027
    141.00     -0.7185     -0.7185
    142.00     -0.7360     -0.7360
    143.00     -0.7546     -0.7546
    144.00     -0.7728     -0.7728
    145.00     -0.7884     -0.7884
    146.00     -0.8034     -0.8034
    147.00     -0.8226     -0.8226
    148.00     -0.8604     -0.8604
    149.00     -0.9069     -0.9069
    150.00     -0.9296     -0.9296
    151.00     -0.9262     -0.9262
    152.00     -0.9186     -0.9186
    153.00     -0.9110     -0.9110
    154.00     -0.9048     -0.9048
    155.00     -0.8986     -0.8986
    156.00     -0.8924     -0.8924
    157.00     -0.8871     -0.8871
    158.00     -0.8818     -0.8818
    159.00     -0.8738     -0.8738
    160.00     -0.8531     -0.8531
    161.00     -0.8187     -0.8187
    162.00     -0.7808     -0.7808
    163.00     -0.7407     -0.7407
    164.00     -0.6957     -0.6957
    165.00     -0.6507     -0.6507
    166.00     -0.6073     -0.6073
    167.00     -0.5639     -0.5639
    168.00     -0.5205     -0.5205
    169.00     -0.4771     -0.4771
    170.00     -0.4337     -0.4337
    171.00     -0.3902     -0.3902
    172.00     -0.3467     -0.3467
    173.00     -0.3032     -0.3032
    174.00     -0.2596     -0.2596
    175.00     -0.2160     -0.2160
    176.00     -0.1724     -0.1724
    177.00     -0.1290     -0.1290
    178.00     -0.0858     -0.0858
    179.00     -0.0428     -0.0428
    180.00      0.0000      0.0000
                0.0000      1.0000
   -180.00      0.1236      0.1236
   -179.00      0.1235      0.1235
   -178.00      0.1233      0.1233
   -177.00      0.1230      0.1230
   -176.00      0.1227      0.1227
   -175.00      0.1222      0.1222
   -174.00      0.1217      0.1217
   -173.00      0.1208      0.1208
   -172.00      0.1198      0.1198
   -171.00      0.1193      0.1193
   -170.00      0.1209      0.1209
   -169.00      0.1243      0.1243
   -168.00      0.1277      0.1277
   -167.00      0.1308      0.1308
   -166.00      0.1340      0.1340
   -165.00      0.1354      0.1354
   -164.00      0.1347      0.1347
   -163.00      0.1333      0.1333
   -162.00      0.1326      0.1326
   -161.00      0.1354      0.1354
   -160.00      0.1423      0.1423
   -159.00      0.1510      0.1510
   -158.00      0.1637      0.1637
   -157.00      0.1813      0.1813
   -156.00      0.1988      0.1988
   -155.00      0.2146      0.2146
   -154.00      0.2305      0.2305
   -153.00      0.2462      0.2462
   -152.00      0.2616      0.2616
   -151.00      0.2769      0.2769
   -150.00      0.2934      0.2934
   -149.00      0.3125      0.3125
   -148.00      0.3331      0.3331
   -147.00      0.3525      0.3525
   -146.00      0.3693      0.3693
   -145.00      0.3851      0.3851
   -144.00      0.4014      0.4014
   -143.00      0.4188      0.4188
   -142.00      0.4369      0.4369
   -141.00      0.4554      0.4554
   -140.00      0.4744      0.4744
   -139.00      0.4939      0.4939
   -138.00      0.5136      0.5136
   -137.00      0.5336      0.5336
   -136.00      0.5538      0.5538
   -135.00      0.5740      0.5740
   -134.00      0.5942      0.5942
   -133.00      0.6145      0.6145
   -132.00      0.6346      0.6346
   -131.00      0.6546      0.6546
   -130.00      0.6746      0.6746
   -129.00      0.6942      0.6942
   -128.00      0.7134      0.7134
   -127.00      0.7324      0.7324
   -126.00      0.7515      0.7515
   -125.00      0.7707      0.7707
   -124.00      0.7901      0.7901
   -123.00      0.8097      0.8097
   -122.00      0.8303      0.8303
   -121.00      0.8512      0.8512
   -120.00      0.8703      0.8703
   -119.00      0.8866      0.8866
   -118.00      0.9016      0.9016
   -117.00      0.9168      0.9168
   -116.00      0.9328      0.9328
   -115.00      0.9490      0.9490
   -114.00      0.9655      0.9655
   -113.00      0.9830      0.9830
   -112.00      1.0009      1.0009
   -111.00      1.0171      1.0171
   -110.00      1.0310      1.0310
   -109.00      1.0437      1.0437
   -108.00      1.0557      1.0557
   -107.00      1.0670      1.0670
   -106.00      1.0778      1.0778
   -105.00      1.0889      1.0889
   -104.00      1.1011      1.1011
   -103.00      1.1136      1.1136
   -102.00      1.1255      1.1255
   -101.00      1.1371      1.1371
   -100.00      1.1480      1.1480
    -99.00      1.1564      1.1564
    -98.00      1.1616      1.1616
    -97.00      1.1657      1.1657
    -96.00      1.1702      1.1702
    -95.00      1.1757      1.1757
    -94.00      1.1817      1.1817
    -93.00      1.1881      1.1881
    -92.00      1.1968      1.1968
    -91.00      1.2060      1.2060
    -90.00      1.2103      1.2103
    -89.00      1.2060      1.2060
    -88.00      1.1968      1.1968
    -87.00      1.1881      1.1881
    -86.00      1.1817      1.1817
    -85.00      1.1757      1.1757
    -84.00      1.1702      1.1702
    -83.00      1.1657      1.1657
    -82.00      1.1616      1.1616
    -81.00      1.1564      1.1564
    -80.00      1.1480      1.1480
    -79.00      1.1371      1.1371
    -78.00      1.1255      1.1255
    -77.00      1.1136      1.1136
    -76.00      1.1011      1.1011
    -75.00      1.0889      1.0889
    -74.00      1.0778      1.0778
    -73.00      1.0670      1.0670
    -72.00      1.0557      1.0557
    -71.00      1.0437      1.0437
    -70.00      1.0310      1.0310
    -69.00      1.0171      1.0171
    -68.00      1.0009      1.0009
    -67.00      0.9830      0.9830
    -66.00      0.9655      0.9655
    -65.00      0.9490      0.9490
    -64.00      0.9328      0.9328
    -63.00      0.9168      0.9168
    -62.00      0.9016      0.9016
    -61.00      0.8866      0.8866
    -60.00      0.8703      0.8703
    -59.00      0.8512      0.8512
    -58.00      0.8303      0.8303
    -57.00      0.8097      0.8097
    -56.00      0.7901      0.7901
    -55.00      0.7707      0.7707
    -54.00      0.7515      0.7515
    -53.00      0.7324      0.7324
    -52.00      0.7134      0.7134
    -51.00      0.6942      0.6942
    -50.00      0.6746      0.6746
    -49.00      0.6546      0.6546
    -48.00      0.6346      0.6346
    -47.00      0.6145      0.6145
    -46.00      0.5942      0.5942
    -45.00      0.5740      0.5740
    -44.00      0.5538      0.5538
    -43.00      0.5336      0.5336
    -42.00      0.5136      0.5136
    -41.00      0.4939      0.4939
    -40.00      0.4744      0.4744
    -39.00      0.4554      0.4554
    -38.00      0.4369      0.4369
    -37.00      0.4188      0.4188
    -36.00      0.4014      0.4014
    -35.00      0.3848      0.3848
    -34.00      0.3687      0.3687
    -33.00      0.3525      0.3525
    -32.00      0.3338      0.3338
    -31.00      0.3150      0.3150
    -30.00      0.3023      0.3023
    -29.00      0.2963      0.2963
    -28.00      0.2882      0.2882
    -27.00      0.2763      0.2763
    -26.00      0.2637      0.2637
    -25.00      0.2508      0.2508
    -24.00      0.2377      0.2377
    -23.00      0.2239      0.2239
    -22.00      0.2100      0.2100
    -21.00      0.1958      0.1958
    -20.00      0.1815      0.1815
    -19.00      0.1759      0.1759
    -18.00      0.1696      0.1696
    -17.00      0.1635      0.1635
    -16.00      0.1592      0.1592
    -15.00      0.1538      0.1538
    -14.00      0.1501      0.1501
    -13.00      0.1457      0.1457
    -12.00      0.1426      0.1426
    -11.00      0.1393      0.1393
    -10.00      0.1355      0.1355
     -9.00      0.1336      0.1336
     -8.00      0.1324      0.1324
     -7.00      0.1318      0.1318
     -6.00      0.1315      0.1315
     -5.00      0.1312      0.1312
     -4.00      0.1312      0.1312
     -3.00      0.1312      0.1312
     -2.00      0.1315      0.1315
     -1.00      0.1316      0.1316
      0.00      0.1317      0.1317
      1.00      0.1319      0.1319
      2.00      0.1321      0.1321
      3.00      0.1324      0.1324
      4.00      0.1325      0.1325
      5.00      0.1329      0.1329
      6.00      0.1331      0.1331
      7.00      0.1335      0.1335
      8.00      0.1339      0.1339
      9.00      0.1342      0.1342
     10.00      0.1346      0.1346
     11.00      0.1347      0.1347
     12.00      0.1351      0.1351
     13.00      0.1353      0.1353
     14.00      0.1358      0.1358
     15.00      0.1378      0.1378
     16.00      0.1416      0.1416
     17.00      0.1466      0.1466
     18.00      0.1546      0.1546
     19.00      0.1625      0.1625
     20.00      0.1708      0.1708
     21.00      0.1802      0.1802
     22.00      0.1874      0.1874
     23.00      0.1946      0.1946
     24.00      0.2041      0.2041
     25.00      0.2177      0.2177
     26.00      0.2343      0.2343
     27.00      0.2510      0.2510
     28.00      0.2676      0.2676
     29.00      0.2842      0.2842
     30.00      0.3021      0.3021
     31.00      0.3208      0.3208
     32.00      0.3396      0.3396
     33.00      0.3578      0.3578
     34.00      0.3750      0.3750
     35.00      0.3919      0.3919
     36.00      0.4089      0.4089
     37.00      0.4262      0.4262
     38.00      0.4438      0.4438
     39.00      0.4618      0.4618
     40.00      0.4805      0.4805
     41.00      0.4996      0.4996
     42.00      0.5190      0.5190
     43.00      0.5384      0.5384
     44.00      0.5579      0.5579
     45.00      0.5775      0.5775
     46.00      0.5970      0.5970
     47.00      0.6165      0.6165
     48.00      0.6360      0.6360
     49.00      0.6555      0.6555
     50.00      0.6749      0.6749
     51.00      0.6942      0.6942
     52.00      0.7133      0.7133
     53.00      0.7324      0.7324
     54.00      0.7515      0.7515
     55.00      0.7707      0.7707
     56.00      0.7901      0.7901
     57.00      0.8097      0.8097
     58.00      0.8303      0.8303
     59.00      0.8512      0.8512
     60.00      0.8703      0.8703
     61.00      0.8866      0.8866
     62.00      0.9016      0.9016
     63.00      0.9168      0.9168
     64.00      0.9328      0.9328
     65.00      0.9490      0.9490
     66.00      0.9655      0.9655
     67.00      0.9830      0.9830
     68.00      1.0009      1.0009
     69.00      1.0171      1.0171
     70.00      1.0310      1.0310
     71.00      1.0437      1.0437
     72.00      1.0557      1.0557
     73.00      1.0670      1.0670
     74.00      1.0778      1.0778
     75.00      1.0889      1.0889
     76.00      1.1011      1.1011
     77.00      1.1136      1.1136
     78.00      1.1255      1.1255
     79.00      1.1371      1.1371
     80.00      1.1480      1.1480
     81.00      1.1564      1.1564
     82.00      1.1616      1.1616
     83.00      1.1657      1.1657
     84.00      1.1702      1.1702
     85.00      1.1757      1.1757
     86.00      1.1817      1.1817
     87.00      1.1881      1.1881
     88.00      1.1968      1.1968
     89.00      1.2060      1.2060
     90.00      1.2103      1.2103
     91.00      1.2060      1.2060
     92.00      1.1968      1.1968
     93.00      1.1881      1.1881
     94.00      1.1817      1.1817
     95.00      1.1757      1.1757
     96.00      1.1702      1.1702
     97.00      1.1657      1.1657
     98.00      1.1616      1.1616
     99.00      1.1564      1.1564
    100.00      1.1480      1.1480
    101.00      1.1371      1.1371
    102.00      1.1255      1.1255
    103.00      1.1136      1.1136
    104.00      1.1011      1.1011
    105.00      1.0889      1.0889
    106.00      1.0778      1.0778
    107.00      1.0670      1.0670
    108.00      1.0557      1.0557
    109.00      1.0437      1.0437
    110.00      1.0310      1.0310
    111.00      1.0171      1.0171
    112.00      1.0009      1.0009
    113.00      0.9830      0.9830
    114.00      0.9655      0.9655
    115.00      0.9490      0.9490
    116.00      0.9328      0.9328
    117.00      0.9168      0.9168
    118.00      0.9016      0.9016
    119.00      0.8866      0.8866
    120.00      0.8703      0.8703
    121.00      0.8512      0.8512
    122.00      0.8303      0.8303
    123.00      0.8097      0.8097
    124.00      0.7901      0.7901
    125.00      0.7707      0.7707
    126.00      0.7515      0.7515
    127.00      0.7324      0.7324
    128.00      0.7134      0.7134
    129.00      0.6942      0.6942
    130.00      0.6746      0.6746
    131.00      0.6546      0.6546
    132.00      0.6346      0.6346
    133.00      0.6145      0.6145
    134.00      0.5942      0.5942
    135.00      0.5740      0.5740
    136.00      0.5538      0.5538
    137.00      0.5336      0.5336
    138.00      0.5136      0.5136
    139.00      0.4939      0.4939
    140.00      0.4744      0.4744
    141.00      0.4554      0.4554
    142.00      0.4369      0.4369
    143.00      0.4188      0.4188
    144.00      0.4014      0.4014
    145.00      0.3851      0.3851
    146.00      0.3693      0.3693
    147.00      0.3525      0.3525
    148.00      0.3331      0.3331
    149.00      0.3125      0.3125
    150.00      0.2934      0.2934
    151.00      0.2769      0.2769
    152.00      0.2616      0.2616
    153.00      0.2462      0.2462
    154.00      0.2305      0.2305
    155.00      0.2146      0.2146
    156.00      0.1988      0.1988
    157.00      0.1813      0.1813
    158.00      0.1637      0.1637
    159.00      0.1510      0.1510
    160.00      0.1423      0.1423
    161.00      0.1354      0.1354
    162.00      0.1326      0.1326
    163.00      0.1333      0.1333
    164.00      0.1347      0.1347
    165.00      0.1354      0.1354
    166.00      0.1340      0.1340
    167.00      0.1308      0.1308
    168.00      0.1277      0.1277
    169.00      0.1243      0.1243
    170.00      0.1209      0.1209
    171.00      0.1193      0.1193
    172.00      0.1198      0.1198
    173.00      0.1208      0.1208
    174.00      0.1217      0.1217
    175.00      0.1222      0.1222
    176.00      0.1227      0.1227
    177.00      0.1230      0.1230
    178.00      0.1233      0.1233
    179.00      0.1235      0.1235
    180.00      0.1236      0.1236
                0.0000      1.0000
   -180.00     -0.0000     -0.0000
   -179.00      0.0249      0.0249
   -178.00      0.0500      0.0500
   -177.00      0.0753      0.0753
   -176.00      0.1007      0.1007
   -175.00      0.1263      0.1263
   -174.00      0.1519      0.1519
   -173.00      0.1811      0.1811
   -172.00      0.2103      0.2103
   -171.00      0.2285      0.2285
   -170.00      0.2370      0.2370
   -169.00      0.2431      0.2431
   -168.00      0.2454      0.2454
   -167.00      0.2431      0.2431
   -166.00      0.2380      0.2380
   -165.00      0.2330      0.2330
   -164.00      0.2290      0.2290
   -163.00      0.2250      0.2250
   -162.00      0.2211      0.2211
   -161.00      0.2172      0.2172
   -160.00      0.2134      0.2134
   -159.00      0.2096      0.2096
   -158.00      0.2058      0.2058
   -157.00      0.2020      0.2020
   -156.00      0.1987      0.1987
   -155.00      0.1959      0.1959
   -154.00      0.1935      0.1935
   -153.00      0.1911      0.1911
   -152.00      0.1890      0.1890
   -151.00      0.1869      0.1869
   -150.00      0.1844      0.1844
   -149.00      0.1805      0.1805
   -148.00      0.1755      0.1755
   -147.00      0.1706      0.1706
   -146.00      0.1661      0.1661
   -145.00      0.1617      0.1617
   -144.00      0.1572      0.1572
   -143.00      0.1524      0.1524
   -142.00      0.1476      0.1476
   -141.00      0.1440      0.1440
   -140.00      0.1415      0.1415
   -139.00      0.1395      0.1395
   -138.00      0.1381      0.1381
   -137.00      0.1371      0.1371
   -136.00      0.1364      0.1364
   -135.00      0.1357      0.1357
   -134.00      0.1348      0.1348
   -133.00      0.1340      0.1340
   -132.00      0.1333      0.1333
   -131.00      0.1329      0.1329
   -130.00      0.1325      0.1325
   -129.00      0.1323      0.1323
   -128.00      0.1327      0.1327
   -127.00      0.1335      0.1335
   -126.00      0.1342      0.1342
   -125.00      0.1348      0.1348
   -124.00      0.1355      0.1355
   -123.00      0.1361      0.1361
   -122.00      0.1367      0.1367
   -121.00      0.1372      0.1372
   -120.00      0.1379      0.1379
   -119.00      0.1388      0.1388
   -118.00      0.1399      0.1399
   -117.00      0.1410      0.1410
   -116.00      0.1420      0.1420
   -115.00      0.1430      0.1430
   -114.00      0.1440      0.1440
   -113.00      0.1451      0.1451
   -112.00      0.1461      0.1461
   -111.00      0.1471      0.1471
   -110.00      0.1480      0.1480
   -109.00      0.1488      0.1488
   -108.00      0.1496      0.1496
   -107.00      0.1503      0.1503
   -106.00      0.1510      0.1510
   -105.00      0.1517      0.1517
   -104.00      0.1525      0.1525
   -103.00      0.1532      0.1532
   -102.00      0.1539      0.1539
   -101.00      0.1545      0.1545
   -100.00      0.1550      0.1550
    -99.00      0.1553      0.1553
    -98.00      0.1552      0.1552
    -97.00      0.1551      0.1551
    -96.00      0.1550      0.1550
    -95.00      0.1549      0.1549
    -94.00      0.1548      0.1548
    -93.00      0.1547      0.1547
    -92.00      0.1547      0.1547
    -91.00      0.1546      0.1546
    -90.00      0.1545      0.1545
    -89.00      0.1534      0.1534
    -88.00      0.1513      0.1513
    -87.00      0.1491      0.1491
    -86.00      0.1474      0.1474
    -85.00      0.1456      0.1456
    -84.00      0.1438      0.1438
    -83.00      0.1421      0.1421
    -82.00      0.1404      0.1404
    -81.00      0.1385      0.1385
    -80.00      0.1364      0.1364
    -79.00      0.1342      0.1342
    -78.00      0.1319      0.1319
    -77.00      0.1295      0.1295
    -76.00      0.1271      0.1271
    -75.00      0.1246      0.1246