IEA-15-240-RWT_AeroDyn15_Polar_15; 2 361 2 361 2 361
                0.0000      1.0000
   -180.00      0.0000      0.0000
   -179.00      0.0307      0.0307
   -178.00      0.0614      0.0614
   -177.00      0.0921      0.0921
   -176.00      0.1228      0.1228
   -175.00      0.1535      0.1535
   -174.00      0.1842      0.1842
   -173.00      0.2149      0.2149
   -172.00      0.2455      0.2455
   -171.00      0.2762      0.2762
   -170.00      0.3069      0.3069
   -169.00      0.3376      0.3376
   -168.00      0.3683      0.3683
   -167.00      0.3990      0.3990
   -166.00      0.4297      0.4297
   -165.00      0.4604      0.4604
   -164.00      0.4911      0.4911
   -163.00      0.5218      0.5218
   -162.00      0.5525      0.5525
   -161.00      0.5832      0.5832
   -160.00      0.6139      0.6139
   -159.00      0.6446      0.6446
   -158.00      0.6753      0.6753
   -157.00      0.7061      0.7061
   -156.00      0.7368      0.7368
   -155.00      0.7676      0.7676
   -154.00      0.7983      0.7983
   -153.00      0.8292      0.8292
   -152.00      0.8626      0.8626
   -151.00      0.8961      0.8961
   -150.00      0.9218      0.9218
   -149.00      0.9413      0.9413
   -148.00      0.9573      0.9573
   -147.00      0.9639      0.9639
   -146.00      0.9526      0.9526
   -145.00      0.9282      0.9282
   -144.00      0.9045      0.9045
   -143.00      0.8865      0.8865
   -142.00      0.8692      0.8692
   -141.00      0.8523      0.8523
   -140.00      0.8354      0.8354
   -139.00      0.8188      0.8188
   -138.00      0.8025      0.8025
   -137.00      0.7863      0.7863
   -136.00      0.7704      0.7704
   -135.00      0.7545      0.7545
   -134.00      0.7388      0.7388
   -133.00      0.7233      0.7233
   -132.00      0.7077      0.7077
   -131.00      0.6921      0.6921
   -130.00      0.6765      0.6765
   -129.00      0.6608      0.6608
   -128.00      0.6450      0.6450
   -127.00      0.6293      0.6293
   -126.00      0.6134      0.6134
   -125.00      0.5975      0.5975
   -124.00      0.5815      0.5815
   -123.00      0.5654      0.5654
   -122.00      0.5491      0.5491
   -121.00      0.5327      0.5327
   -120.00      0.5161      0.5161
   -119.00      0.4995      0.4995
   -118.00      0.4827      0.4827
   -117.00      0.4658      0.4658
   -116.00      0.4489      0.4489
   -115.00      0.4318      0.4318
   -114.00      0.4147      0.4147
   -113.00      0.3975      0.3975
   -112.00      0.3801      0.3801
   -111.00      0.3627      0.3627
   -110.00      0.3451      0.3451
   -109.00      0.3275      0.3275
   -108.00      0.3099      0.3099
   -107.00      0.2922      0.2922
   -106.00      0.2746      0.2746
   -105.00      0.2569      0.2569
   -104.00      0.2392      0.2392
   -103.00      0.2215      0.2215
   -102.00      0.2038      0.2038
   -101.00      0.1862      0.1862
   -100.00      0.1686      0.1686
    -99.00      0.1512      0.1512
    -98.00      0.1339      0.1339
    -97.00      0.1166      0.1166
    -96.00      0.0996      0.0996
    -95.00      0.0826      0.0826
    -94.00      0.0658      0.0658
    -93.00      0.0491      0.0491
    -92.00      0.0326      0.0326
    -91.00      0.0163      0.0163
    -90.00     -0.0000     -0.0000
    -89.00     -0.0163     -0.0163
    -88.00     -0.0326     -0.0326
    -87.00     -0.0491     -0.0491
    -86.00     -0.0658     -0.0658
    -85.00     -0.0826     -0.0826
    -84.00     -0.0996     -0.0996
    -83.00     -0.1166     -0.1166
    -82.00     -0.1339     -0.1339
    -81.00     -0.1512     -0.1512
    -80.00     -0.1686     -0.1686
    -79.00     -0.1862     -0.1862
    -78.00     -0.2038     -0.2038
    -77.00     -0.2215     -0.2215
    -76.00     -0.2392     -0.2392
    -75.00     -0.2569     -0.2569
    -74.00     -0.2746     -0.2746
    -73.00     -0.2922     -0.2922
    -72.00     -0.3099     -0.3099
    -71.00     -0.3275     -0.3275
    -70.00     -0.3451     -0.3451
    -69.00     -0.3627     -0.3627
    -68.00     -0.3801     -0.3801
    -67.00     -0.3975     -0.3975
    -66.00     -0.4147     -0.4147
    -65.00     -0.4318     -0.4318
    -64.00     -0.4489     -0.4489
    -63.00     -0.4658     -0.4658
    -62.00     -0.4827     -0.4827
    -61.00     -0.4995     -0.4995
    -60.00     -0.5161     -0.5161
    -59.00     -0.5327     -0.5327
    -58.00     -0.5491     -0.5491
    -57.00     -0.5654     -0.5654
    -56.00     -0.5815     -0.5815
    -55.00     -0.5975     -0.5975
    -54.00     -0.6134     -0.6134
    -53.00     -0.6293     -0.6293
    -52.00     -0.6450     -0.6450
    -51.00     -0.6608     -0.6608
    -50.00     -0.6765     -0.6765
    -49.00     -0.6921     -0.6921
    -48.00     -0.7077     -0.7077
    -47.00     -0.7223     -0.7223
    -46.00     -0.7369     -0.7369
    -45.00     -0.7545     -0.7545
    -44.00     -0.7792     -0.7792
    -43.00     -0.8095     -0.8095
    -42.00     -0.8400     -0.8400
    -41.00     -0.8688     -0.8688
    -40.00     -0.8979     -0.8979
    -39.00     -0.9273     -0.9273
    -38.00     -0.9567     -0.9567
    -37.00     -0.9865     -0.9865
    -36.00     -1.0170     -1.0170
    -35.00     -1.0477     -1.0477
    -34.00     -1.0792     -1.0792
    -33.00     -1.1139     -1.1139
    -32.00     -1.1545     -1.1545
    -31.00     -1.1993     -1.1993
    -30.00     -1.2447     -1.2447
    -29.00     -1.2893     -1.2893
    -28.00     -1.3271     -1.3271
    -27.00     -1.3272     -1.3272
    -26.00     -1.3209     -1.3209
    -25.00     -1.3128     -1.3128
    -24.00     -1.2964     -1.2964
    -23.00     -1.2714     -1.2714
    -22.00     -1.2462     -1.2462
    -21.00     -1.2195     -1.2195
    -20.00     -1.1908     -1.1908
    -19.00     -1.1593     -1.1593
    -18.00     -1.1280     -1.1280
    -17.00     -1.0974     -1.0974
    -16.00     -1.0672     -1.0672
    -15.00     -1.0418     -1.0418
    -14.00     -1.0172     -1.0172
    -13.00     -0.9975     -0.9975
    -12.00     -0.9760     -0.9760
    -11.00     -0.9348     -0.9348
    -10.00     -0.8919     -0.8919
     -9.00     -0.7828     -0.7828
     -8.00     -0.6728     -0.6728
     -7.00     -0.5502     -0.5502
     -6.00     -0.4250     -0.4250
     -5.00     -0.2898     -0.2898
     -4.00     -0.1528     -0.1528
     -3.00     -0.0059     -0.0059
     -2.00      0.1414      0.1414
     -1.00      0.2884      0.2884
      0.00      0.4335      0.4335
      1.00      0.5766      0.5766
      2.00      0.7172      0.7172
      3.00      0.8554      0.8554
      4.00      0.9916      0.9916
      5.00      1.1249      1.1249
      6.00      1.2556      1.2556
      7.00      1.3836      1.3836
      8.00      1.5065      1.5065
      9.00      1.6239      1.6239
     10.00      1.7345      1.7345
     11.00      1.8306      1.8306
     12.00      1.9159      1.9159
     13.00      1.9830      1.9830
     14.00      2.0155      2.0155
     15.00      2.0332      2.0332
     16.00      2.0463      2.0463
     17.00      2.0378      2.0378
     18.00      2.0266      2.0266
     19.00      1.9715      1.9715
     20.00      1.9158      1.9158
     21.00      1.8718      1.8718
     22.00      1.8296      1.8296
     23.00      1.7873      1.7873
     24.00      1.7466      1.7466
     25.00      1.7367      1.7367
     26.00      1.7192      1.7192
     27.00      1.6994      1.6994
     28.00      1.6775      1.6775
     29.00      1.6488      1.6488
     30.00      1.6218      1.6218
     31.00      1.5928      1.5928
     32.00      1.5613      1.5613
     33.00      1.5270      1.5270
     34.00      1.4882      1.4882
     35.00      1.4458      1.4458
     36.00      1.4047      1.4047
     37.00      1.3664      1.3664
     38.00      1.3293      1.3293
     39.00      1.2925      1.2925
     40.00      1.2559      1.2559
     41.00      1.2198      1.2198
     42.00      1.1839      1.1839
     43.00      1.1466      1.1466
     44.00      1.1096      1.1096
     45.00      1.0779      1.0779
     46.00      1.0534      1.0534
     47.00      1.0322      1.0322
     48.00      1.0110      1.0110
     49.00      0.9887      0.9887
     50.00      0.9664      0.9664
     51.00      0.9440      0.9440
     52.00      0.9215      0.9215
     53.00      0.8989      0.8989
     54.00      0.8763      0.8763
     55.00      0.8536      0.8536
     56.00      0.8308      0.8308
     57.00      0.8077      0.8077
     58.00      0.7845      0.7845
     59.00      0.7610      0.7610
     60.00      0.7373      0.7373
     61.00      0.7135      0.7135
     62.00      0.6896      0.6896
     63.00      0.6655      0.6655
     64.00      0.6413      0.6413
     65.00      0.6169      0.6169
     66.00      0.5924      0.5924
     67.00      0.5678      0.5678
     68.00      0.5430      0.5430
     69.00      0.5181      0.5181
     70.00      0.4931      0.4931
     71.00      0.4679      0.4679
     72.00      0.4427      0.4427
     73.00      0.4175      0.4175
     74.00      0.3922      0.3922
     75.00      0.3670      0.3670
     76.00      0.3417      0.3417
     77.00      0.3164      0.3164
     78.00      0.2912      0.2912
     79.00      0.2660      0.2660
     80.00      0.2409      0.2409
     81.00      0.2160      0.2160
     82.00      0.1912      0.1912
     83.00      0.1666      0.1666
     84.00      0.1422      0.1422
     85.00      0.1180      0.1180
     86.00      0.0939      0.0939
     87.00      0.0701      0.0701
     88.00      0.0457      0.0457
     89.00      0.0215      0.0215
     90.00      0.0000      0.0000
     91.00     -0.0176     -0.0176
     92.00     -0.0333     -0.0333
     93.00     -0.0491     -0.0491
     94.00     -0.0658     -0.0658
     95.00     -0.0826     -0.0826
     96.00     -0.0996     -0.0996
     97.00     -0.1166     -0.1166
     98.00     -0.1339     -0.1339
     99.00     -0.1512     -0.1512
    100.00     -0.1686     -0.1686
    101.00     -0.1862     -0.1862
    102.00     -0.2038     -0.2038
    103.00     -0.2215     -0.2215
    104.00     -0.2392     -0.2392
    105.00     -0.2569     -0.2569
    106.00     -0.2746     -0.2746
    107.00     -0.2922     -0.2922
    108.00     -0.3099     -0.3099
    109.00     -0.3275     -0.3275
    110.00     -0.3451     -0.3451
    111.00     -0.3627     -0.3627
    112.00     -0.3801     -0.3801
    113.00     -0.3975     -0.3975
    114.00     -0.4147     -0.4147
    115.00     -0.4318     -0.4318
    116.00     -0.4489     -0.4489
    117.00     -0.4658     -0.4658
    118.00     -0.4827     -0.4827
    119.00     -0.4995     -0.4995
    120.00     -0.5161     -0.5161
    121.00     -0.5327     -0.5327
    122.00     -0.5491     -0.5491
    123.00     -0.5654     -0.5654
    124.00     -0.5815     -0.5815
    125.00     -0.5975     -0.5975
    126.00     -0.6134     -0.6134
    127.00     -0.6293     -0.6293
    128.00     -0.6450     -0.6450
    129.00     -0.6608     -0.6608
    130.00     -0.6765     -0.6765
    131.00     -0.6921     -0.6921
    132.00     -0.7077     -0.7077
    133.00     -0.7233     -0.7233
    134.00     -0.7388     -0.7388
    135.00     -0.7545     -0.7545
    136.00     -0.7704     -0.7704
    137.00     -0.7863     -0.7863
    138.00     -0.8025     -0.8025
    139.00     -0.8188     -0.8188
    140.00     -0.8354     -0.8354
    141.00     -0.8523     -0.8523
    142.00     -0.8692     -0.8692
    143.00     -0.8865     -0.8865
    144.00     -0.9045     -0.9045
    145.00     -0.9282     -0.9282
    146.00     -0.9526     -0.9526
    147.00     -0.9639     -0.9639
    148.00     -0.9573     -0.9573
    149.00     -0.9413     -0.9413
    150.00     -0.9218     -0.9218
    151.00     -0.8961     -0.8961
    152.00     -0.8626     -0.8626
    153.00     -0.8292     -0.8292
    154.00     -0.7983     -0.7983
    155.00     -0.7676     -0.7676
    156.00     -0.7368     -0.7368
    157.00     -0.7061     -0.7061
    158.00     -0.6753     -0.6753
    159.00     -0.6446     -0.6446
    160.00     -0.6139     -0.6139
    161.00     -0.5832     -0.5832
    162.00     -0.5525     -0.5525
    163.00     -0.5218     -0.5218
    164.00     -0.4911     -0.4911
    165.00     -0.4604     -0.4604
    166.00     -0.4297     -0.4297
    167.00     -0.3990     -0.3990
    168.00     -0.3683     -0.3683
    169.00     -0.3376     -0.3376
    170.00     -0.3069     -0.3069
    171.00     -0.2762     -0.2762
    172.00     -0.2455     -0.2455
    173.00     -0.2149     -0.2149
    174.00     -0.1842     -0.1842
    175.00     -0.1535     -0.1535
    176.00     -0.1228     -0.1228
    177.00     -0.0921     -0.0921
    178.00     -0.0614     -0.0614
    179.00     -0.0307     -0.0307
    180.00      0.0000      0.0000
                0.0000      1.0000
   -180.00      0.0329      0.0329
   -179.00      0.0331      0.0331
   -178.00      0.0336      0.0336
   -177.00      0.0341      0.0341
   -176.00      0.0349      0.0349
   -175.00      0.0359      0.0359
   -174.00      0.0372      0.0372
   -173.00      0.0386      0.0386
   -172.00      0.0402      0.0402
   -171.00      0.0421      0.0421
   -170.00      0.0443      0.0443
   -169.00      0.0468      0.0468
   -168.00      0.0502      0.0502
   -167.00      0.0555      0.0555
   -166.00      0.0632      0.0632
   -165.00      0.0721      0.0721
   -164.00      0.0829      0.0829
   -163.00      0.0957      0.0957
   -162.00      0.1092      0.1092
   -161.00      0.1230      0.1230
   -160.00      0.1374      0.1374
   -159.00      0.1524      0.1524
   -158.00      0.1681      0.1681
   -157.00      0.1843      0.1843
   -156.00      0.2010      0.2010
   -155.00      0.2182      0.2182
   -154.00      0.2359      0.2359
   -153.00      0.2541      0.2541
   -152.00      0.2727      0.2727
   -151.00      0.2919      0.2919
   -150.00      0.3114      0.3114
   -149.00      0.3315      0.3315
   -148.00      0.3521      0.3521
   -147.00      0.3729      0.3729
   -146.00      0.3938      0.3938
   -145.00      0.4150      0.4150
   -144.00      0.4364      0.4364
   -143.00      0.4583      0.4583
   -142.00      0.4806      0.4806
   -141.00      0.5029      0.5029
   -140.00      0.5253      0.5253
   -139.00      0.5479      0.5479
   -138.00      0.5705      0.5705
   -137.00      0.5932      0.5932
   -136.00      0.6160      0.6160
   -135.00      0.6388      0.6388
   -134.00      0.6617      0.6617
   -133.00      0.6846      0.6846
   -132.00      0.7073      0.7073
   -131.00      0.7300      0.7300
   -130.00      0.7525      0.7525
   -129.00      0.7749      0.7749
   -128.00      0.7971      0.7971
   -127.00      0.8192      0.8192
   -126.00      0.8411      0.8411
   -125.00      0.8629      0.8629
   -124.00      0.8845      0.8845
   -123.00      0.9057      0.9057
   -122.00      0.9264      0.9264
   -121.00      0.9466      0.9466
   -120.00      0.9665      0.9665
   -119.00      0.9860      0.9860
   -118.00      1.0052      1.0052
   -117.00      1.0239      1.0239
   -116.00      1.0423      1.0423
   -115.00      1.0603      1.0603
   -114.00      1.0777      1.0777
   -113.00      1.0948      1.0948
   -112.00      1.1113      1.1113
   -111.00      1.1271      1.1271
   -110.00      1.1420      1.1420
   -109.00      1.1562      1.1562
   -108.00      1.1698      1.1698
   -107.00      1.1829      1.1829
   -106.00      1.1955      1.1955
   -105.00      1.2074      1.2074
   -104.00      1.2189      1.2189
   -103.00      1.2299      1.2299
   -102.00      1.2399      1.2399
   -101.00      1.2490      1.2490
   -100.00      1.2574      1.2574
    -99.00      1.2648      1.2648
    -98.00      1.2714      1.2714
    -97.00      1.2774      1.2774
    -96.00      1.2825      1.2825
    -95.00      1.2871      1.2871
    -94.00      1.2911      1.2911
    -93.00      1.2943      1.2943
    -92.00      1.2969      1.2969
    -91.00      1.2991      1.2991
    -90.00      1.3000      1.3000
    -89.00      1.2991      1.2991
    -88.00      1.2969      1.2969
    -87.00      1.2943      1.2943
    -86.00      1.2911      1.2911
    -85.00      1.2871      1.2871
    -84.00      1.2825      1.2825
    -83.00      1.2774      1.2774
    -82.00      1.2714      1.2714
    -81.00      1.2648      1.2648
    -80.00      1.2574      1.2574
    -79.00      1.2490      1.2490
    -78.00      1.2399      1.2399
    -77.00      1.2299      1.2299
    -76.00      1.2189      1.2189
    -75.00      1.2074      1.2074
    -74.00      1.1955      1.1955
    -73.00      1.1829      1.1829
    -72.00      1.1698      1.1698
    -71.00      1.1562      1.1562
    -70.00      1.1420      1.1420
    -69.00      1.1271      1.1271
    -68.00      1.1113      1.1113
    -67.00      1.0948      1.0948
    -66.00      1.0777      1.0777
    -65.00      1.0603      1.0603
    -64.00      1.0423      1.0423
    -63.00      1.0239      1.0239
    -62.00      1.0052      1.0052
    -61.00      0.9860      0.9860
    -60.00      0.9665      0.9665
    -59.00      0.9466      0.9466
    -58.00      0.9264      0.9264
    -57.00      0.9057      0.9057
    -56.00      0.8845      0.8845
    -55.00      0.8629      0.8629
    -54.00      0.8411      0.8411
    -53.00      0.8192      0.8192
    -52.00      0.7971      0.7971
    -51.00      0.7749      0.7749
    -50.00      0.7525      0.7525
    -49.00      0.7300      0.7300
    -48.00      0.7073      0.7073
    -47.00      0.6846      0.6846
    -46.00      0.6617      0.6617
    -45.00      0.6388      0.6388
    -44.00      0.6160      0.6160
    -43.00      0.5932      0.5932
    -42.00      0.5705      0.5705
    -41.00      0.5479      0.5479
    -40.00      0.5253      0.5253
    -39.00      0.5029      0.5029
    -38.00      0.4806      0.4806
    -37.00      0.4583      0.4583
    -36.00      0.4364      0.4364
    -35.00      0.4160      0.4160
    -34.00      0.3958      0.3958
    -33.00      0.3729      0.3729
    -32.00      0.3449      0.3449
    -31.00      0.3129      0.3129
    -30.00      0.2789      0.2789
    -29.00      0.2425      0.2425
    -28.00      0.2082      0.2082
    -27.00      0.1923      0.1923
    -26.00      0.1783      0.1783
    -25.00      0.1643      0.1643
    -24.00      0.1504      0.1504
    -23.00      0.1393      0.1393
    -22.00      0.1283      0.1283
    -21.00      0.1174      0.1174
    -20.00      0.1069      0.1069
    -19.00      0.0976      0.0976
    -18.00      0.0885      0.0885
    -17.00      0.0801      0.0801
    -16.00      0.0718      0.0718
    -15.00      0.0639      0.0639
    -14.00      0.0562      0.0562
    -13.00      0.0490      0.0490
    -12.00      0.0420      0.0420
    -11.00      0.0361      0.0361
    -10.00      0.0304      0.0304
     -9.00      0.0266      0.0266
     -8.00      0.0229      0.0229
     -7.00      0.0204      0.0204
     -6.00      0.0180      0.0180
     -5.00      0.0165      0.0165
     -4.00      0.0151      0.0151
     -3.00      0.0145      0.0145
     -2.00      0.0140      0.0140
     -1.00      0.0137      0.0137
      0.00      0.0136      0.0136
      1.00      0.0136      0.0136
      2.00      0.0138      0.0138
      3.00      0.0140      0.0140
      4.00      0.0143      0.0143
      5.00      0.0147      0.0147
      6.00      0.0152      0.0152
      7.00      0.0159      0.0159
      8.00      0.0167      0.0167
      9.00      0.0177      0.0177
     10.00      0.0190      0.0190
     11.00      0.0210      0.0210
     12.00      0.0239      0.0239
     13.00      0.0286      0.0286
     14.00      0.0367      0.0367
     15.00      0.0465      0.0465
     16.00      0.0571      0.0571
     17.00      0.0693      0.0693
     18.00      0.0819      0.0819
     19.00      0.0989      0.0989
     20.00      0.1165      0.1165
     21.00      0.1355      0.1355
     22.00      0.1548      0.1548
     23.00      0.1739      0.1739
     24.00      0.1934      0.1934
     25.00      0.2133      0.2133
     26.00      0.2333      0.2333
     27.00      0.2533      0.2533
     28.00      0.2732      0.2732
     29.00      0.2928      0.2928
     30.00      0.3124      0.3124
     31.00      0.3323      0.3323
     32.00      0.3524      0.3524
     33.00      0.3729      0.3729
     34.00      0.3937      0.3937
     35.00      0.4149      0.4149
     36.00      0.4364      0.4364
     37.00      0.4583      0.4583
     38.00      0.4806      0.4806
     39.00      0.5029      0.5029
     40.00      0.5253      0.5253
     41.00      0.5479      0.5479
     42.00      0.5705      0.5705
     43.00      0.5932      0.5932
     44.00      0.6160      0.6160
     45.00      0.6388      0.6388
     46.00      0.6617      0.6617
     47.00      0.6846      0.6846
     48.00      0.7073      0.7073
     49.00      0.7300      0.7300
     50.00      0.7525      0.7525
     51.00      0.7749      0.7749
     52.00      0.7971      0.7971
     53.00      0.8192      0.8192
     54.00      0.8411      0.8411
     55.00      0.8629      0.8629
     56.00      0.8845      0.8845
     57.00      0.9057      0.9057
     58.00      0.9264      0.9264
     59.00      0.9466      0.9466
     60.00      0.9665      0.9665
     61.00      0.9860      0.9860
     62.00      1.0052      1.0052
     63.00      1.0239      1.0239
     64.00      1.0423      1.0423
     65.00      1.0603      1.0603
     66.00      1.0777      1.0777
     67.00      1.0948      1.0948
     68.00      1.1113      1.1113
     69.00      1.1271      1.1271
     70.00      1.1420      1.1420
     71.00      1.1562      1.1562
     72.00      1.1698      1.1698
     73.00      1.1829      1.1829
     74.00      1.1955      1.1955
     75.00      1.2074      1.2074
     76.00      1.2189      1.2189
     77.00      1.2299      1.2299
     78.00      1.2399      1.2399
     79.00      1.2490      1.2490
     80.00      1.2574      1.2574
     81.00      1.2648      1.2648
     82.00      1.2714      1.2714
     83.00      1.2774      1.2774
     84.00      1.2825      1.2825
     85.00      1.2871      1.2871
     86.00      1.2911      1.2911
     87.00      1.2943      1.2943
     88.00      1.2969      1.2969
     89.00      1.2991      1.2991
     90.00      1.3000      1.3000
     91.00      1.2991      1.2991
     92.00      1.2969      1.2969
     93.00      1.2943      1.2943
     94.00      1.2911      1.2911
     95.00      1.2871      1.2871
     96.00      1.2825      1.2825
     97.00      1.2774      1.2774
     98.00      1.2714      1.2714
     99.00      1.2648      1.2648
    100.00      1.2574      1.2574
    101.00      1.2490      1.2490
    102.00      1.2399      1.2399
    103.00      1.2299      1.2299
    104.00      1.2189      1.2189
    105.00      1.2074      1.2074
    106.00      1.1955      1.1955
    107.00      1.1829      1.1829
    108.00      1.1698      1.1698
    109.00      1.1562      1.1562
    110.00      1.1420      1.1420
    111.00      1.1271      1.1271
    112.00      1.1113      1.1113
    113.00      1.0948      1.0948
    114.00      1.0777      1.0777
    115.00      1.0603      1.0603
    116.00      1.0423      1.0423
    117.00      1.0239      1.0239
    118.00      1.0052      1.0052
    119.00      0.9860      0.9860
    120.00      0.9665      0.9665
    121.00      0.9466      0.9466
    122.00      0.9264      0.9264
    123.00      0.9057      0.9057
    124.00      0.8845      0.8845
    125.00      0.8629      0.8629
    126.00      0.8411      0.8411
    127.00      0.8192      0.8192
    128.00      0.7971      0.7971
    129.00      0.7749      0.7749
    130.00      0.7525      0.7525
    131.00      0.7300      0.7300
    132.00      0.7073      0.7073
    133.00      0.6846      0.6846
    134.00      0.6617      0.6617
    135.00      0.6388      0.6388
    136.00      0.6160      0.6160
    137.00      0.5932      0.5932
    138.00      0.5705      0.5705
    139.00      0.5479      0.5479
    140.00      0.5253      0.5253
    141.00      0.5029      0.5029
    142.00      0.4806      0.4806
    143.00      0.4583      0.4583
    144.00      0.4364      0.4364
    145.00      0.4150      0.4150
    146.00      0.3938      0.3938
    147.00      0.3729      0.3729
    148.00      0.3521      0.3521
    149.00      0.3315      0.3315
    150.00      0.3114      0.3114
    151.00      0.2919      0.2919
    152.00      0.2727      0.2727
    153.00      0.2541      0.2541
    154.00      0.2359      0.2359
    155.00      0.2182      0.2182
    156.00      0.2010      0.2010
    157.00      0.1843      0.1843
    158.00      0.1681      0.1681
    159.00      0.1524      0.1524
    160.00      0.1374      0.1374
    161.00      0.1230      0.1230
    162.00      0.1092      0.1092
    163.00      0.0957      0.0957
    164.00      0.0829      0.0829
    165.00      0.0721      0.0721
    166.00      0.0632      0.0632
    167.00      0.0555      0.0555
    168.00      0.0502      0.0502
    169.00      0.0468      0.0468
    170.00      0.0443      0.0443
    171.00      0.0421      0.0421
    172.00      0.0402      0.0402
    173.00      0.0386      0.0386
    174.00      0.0372      0.0372
    175.00      0.0359      0.0359
    176.00      0.0349      0.0349
    177.00      0.0341      0.0341
    178.00      0.0336      0.0336
    179.00      0.0331      0.0331
    180.00      0.0329      0.0329
                0.0000      1.0000
   -180.00      0.0000      0.0000
   -179.00      0.0400      0.0400
   -178.00      0.0800      0.0800
   -177.00      0.1200      0.1200
   -176.00      0.1600      0.1600
   -175.00      0.2000      0.2000
   -174.00      0.2400      0.2400
   -173.00      0.2841      0.2841
   -172.00      0.3282      0.3282
   -171.00      0.3600      0.3600
   -170.00      0.3802      0.3802
   -169.00      0.3960      0.3960
   -168.00      0.4043      0.4043
   -167.00      0.4072      0.4072
   -166.00      0.4090      0.4090
   -165.00      0.4109      0.4109
   -164.00      0.4129      0.4129
   -163.00      0.4149      0.4149
   -162.00      0.4174      0.4174
   -161.00      0.4205      0.4205
   -160.00      0.4245      0.4245
   -159.00      0.4293      0.4293
   -158.00      0.4358      0.4358
   -157.00      0.4438      0.4438
   -156.00      0.4519      0.4519
   -155.00      0.4596      0.4596
   -154.00      0.4672      0.4672
   -153.00      0.4746      0.4746
   -152.00      0.4827      0.4827
   -151.00      0.4906      0.4906
   -150.00      0.4941      0.4941
   -149.00      0.4922      0.4922
   -148.00      0.4877      0.4877
   -147.00      0.4830      0.4830
   -146.00      0.4786      0.4786
   -145.00      0.4738      0.4738
   -144.00      0.4690      0.4690
   -143.00      0.4643      0.4643
   -142.00      0.4597      0.4597
   -141.00      0.4556      0.4556
   -140.00      0.4519      0.4519
   -139.00      0.4486      0.4486
   -138.00      0.4456      0.4456
   -137.00      0.4430      0.4430
   -136.00      0.4406      0.4406
   -135.00      0.4383      0.4383
   -134.00      0.4356      0.4356
   -133.00      0.4330      0.4330
   -132.00      0.4309      0.4309
   -131.00      0.4294      0.4294
   -130.00      0.4282      0.4282
   -129.00      0.4272      0.4272
   -128.00      0.4264      0.4264
   -127.00      0.4258      0.4258
   -126.00      0.4254      0.4254
   -125.00      0.4252      0.4252
   -124.00      0.4251      0.4251
   -123.00      0.4250      0.4250
   -122.00      0.4249      0.4249
   -121.00      0.4248      0.4248
   -120.00      0.4248      0.4248
   -119.00      0.4249      0.4249
   -118.00      0.4251      0.4251
   -117.00      0.4254      0.4254
   -116.00      0.4257      0.4257
   -115.00      0.4260      0.4260
   -114.00      0.4264      0.4264
   -113.00      0.4268      0.4268
   -112.00      0.4272      0.4272
   -111.00      0.4274      0.4274
   -110.00      0.4273      0.4273
   -109.00      0.4272      0.4272
   -108.00      0.4270      0.4270
   -107.00      0.4268      0.4268
   -106.00      0.4266      0.4266
   -105.00      0.4264      0.4264
   -104.00      0.4261      0.4261
   -103.00      0.4257      0.4257
   -102.00      0.4253      0.4253
   -101.00      0.4247      0.4247
   -100.00      0.4239      0.4239
    -99.00      0.4230      0.4230
    -98.00      0.4219      0.4219
    -97.00      0.4205      0.4205
    -96.00      0.4191      0.4191
    -95.00      0.4176      0.4176
    -94.00      0.4161      0.4161
    -93.00      0.4146      0.4146
    -92.00      0.4133      0.4133
    -91.00      0.4119      0.4119
    -90.00      0.4102      0.4102
    -89.00      0.4076      0.4076
    -88.00      0.4042      0.4042
    -87.00      0.4008      0.4008
    -86.00      0.3977      0.3977
    -85.00      0.3945      0.3945
    -84.00      0.3914      0.3914
    -83.00      0.3882      0.3882
    -82.00      0.3849      0.3849
    -81.00      0.3815      0.3815
    -80.00      0.3780      0.3780
    -79.00      0.3743      0.3743
    -78.00      0.3705      0.3705
    -77.00      0.3666      0.3666
    -76.00      0.3625      0.3625
    -75.00      0.3584      0.3584