IEA-15-240-RWT_AeroDyn15_Polar_10; 2 361 2 361 2 361
                0.0000      1.0000
   -180.00      0.0000      0.0000
   -179.00      0.0350      0.0350
   -178.00      0.0700      0.0700
   -177.00      0.1050      0.1050
   -176.00      0.1401      0.1401
   -175.00      0.1752      0.1752
   -174.00      0.2104      0.2104
   -173.00      0.2455      0.2455
   -172.00      0.2806      0.2806
   -171.00      0.3157      0.3157
   -170.00      0.3508      0.3508
   -169.00      0.3859      0.3859
   -168.00      0.4210      0.4210
   -167.00      0.4561      0.4561
   -166.00      0.4912      0.4912
   -165.00      0.5263      0.5263
   -164.00      0.5617      0.5617
   -163.00      0.5971      0.5971
   -162.00      0.6315      0.6315
   -161.00      0.6651      0.6651
   -160.00      0.6978      0.6978
   -159.00      0.7284      0.7284
   -158.00      0.7561      0.7561
   -157.00      0.7820      0.7820
   -156.00      0.8077      0.8077
   -155.00      0.8338      0.8338
   -154.00      0.8595      0.8595
   -153.00      0.8846      0.8846
   -152.00      0.9114      0.9114
   -151.00      0.9376      0.9376
   -150.00      0.9550      0.9550
   -149.00      0.9647      0.9647
   -148.00      0.9719      0.9719
   -147.00      0.9748      0.9748
   -146.00      0.9631      0.9631
   -145.00      0.9378      0.9378
   -144.00      0.9133      0.9133
   -143.00      0.8944      0.8944
   -142.00      0.8762      0.8762
   -141.00      0.8584      0.8584
   -140.00      0.8409      0.8409
   -139.00      0.8237      0.8237
   -138.00      0.8069      0.8069
   -137.00      0.7903      0.7903
   -136.00      0.7739      0.7739
   -135.00      0.7577      0.7577
   -134.00      0.7416      0.7416
   -133.00      0.7256      0.7256
   -132.00      0.7096      0.7096
   -131.00      0.6936      0.6936
   -130.00      0.6776      0.6776
   -129.00      0.6616      0.6616
   -128.00      0.6456      0.6456
   -127.00      0.6295      0.6295
   -126.00      0.6134      0.6134
   -125.00      0.5973      0.5973
   -124.00      0.5811      0.5811
   -123.00      0.5648      0.5648
   -122.00      0.5483      0.5483
   -121.00      0.5318      0.5318
   -120.00      0.5151      0.5151
   -119.00      0.4983      0.4983
   -118.00      0.4814      0.4814
   -117.00      0.4644      0.4644
   -116.00      0.4473      0.4473
   -115.00      0.4302      0.4302
   -114.00      0.4130      0.4130
   -113.00      0.3957      0.3957
   -112.00      0.3783      0.3783
   -111.00      0.3609      0.3609
   -110.00      0.3434      0.3434
   -109.00      0.3258      0.3258
   -108.00      0.3082      0.3082
   -107.00      0.2905      0.2905
   -106.00      0.2729      0.2729
   -105.00      0.2553      0.2553
   -104.00      0.2376      0.2376
   -103.00      0.2200      0.2200
   -102.00      0.2024      0.2024
   -101.00      0.1848      0.1848
   -100.00      0.1674      0.1674
    -99.00      0.1501      0.1501
    -98.00      0.1329      0.1329
    -97.00      0.1158      0.1158
    -96.00      0.0989      0.0989
    -95.00      0.0821      0.0821
    -94.00      0.0654      0.0654
    -93.00      0.0488      0.0488
    -92.00      0.0325      0.0325
    -91.00      0.0162      0.0162
    -90.00     -0.0000     -0.0000
    -89.00     -0.0162     -0.0162
    -88.00     -0.0325     -0.0325
    -87.00     -0.0488     -0.0488
    -86.00     -0.0654     -0.0654
    -85.00     -0.0821     -0.0821
    -84.00     -0.0989     -0.0989
    -83.00     -0.1158     -0.1158
    -82.00     -0.1329     -0.1329
    -81.00     -0.1501     -0.1501
    -80.00     -0.1674     -0.1674
    -79.00     -0.1848     -0.1848
    -78.00     -0.2024     -0.2024
    -77.00     -0.2200     -0.2200
    -76.00     -0.2376     -0.2376
    -75.00     -0.2553     -0.2553
    -74.00     -0.2729     -0.2729
    -73.00     -0.2905     -0.2905
    -72.00     -0.3082     -0.3082
    -71.00     -0.3258     -0.3258
    -70.00     -0.3434     -0.3434
    -69.00     -0.3609     -0.3609
    -68.00     -0.3783     -0.3783
    -67.00     -0.3957     -0.3957
    -66.00     -0.4130     -0.4130
    -65.00     -0.4302     -0.4302
    -64.00     -0.4473     -0.4473
    -63.00     -0.4644     -0.4644
    -62.00     -0.4814     -0.4814
    -61.00     -0.4983     -0.4983
    -60.00     -0.5151     -0.5151
    -59.00     -0.5318     -0.5318
    -58.00     -0.5483     -0.5483
    -57.00     -0.5648     -0.5648
    -56.00     -0.5811     -0.5811
    -55.00     -0.5973     -0.5973
    -54.00     -0.6134     -0.6134
    -53.00     -0.6295     -0.6295
    -52.00     -0.6456     -0.6456
    -51.00     -0.6616     -0.6616
    -50.00     -0.6776     -0.6776
    -49.00     -0.6936     -0.6936
    -48.00     -0.7096     -0.7096
    -47.00     -0.7246     -0.7246
    -46.00     -0.7396     -0.7396
    -45.00     -0.7577     -0.7577
    -44.00     -0.7828     -0.7828
    -43.00     -0.8135     -0.8135
    -42.00     -0.8444     -0.8444
    -41.00     -0.8737     -0.8737
    -40.00     -0.9034     -0.9034
    -39.00     -0.9334     -0.9334
    -38.00     -0.9637     -0.9637
    -37.00     -0.9944     -0.9944
    -36.00     -1.0258     -1.0258
    -35.00     -1.0582     -1.0582
    -34.00     -1.0914     -1.0914
    -33.00     -1.1248     -1.1248
    -32.00     -1.1597     -1.1597
    -31.00     -1.1948     -1.1948
    -30.00     -1.2261     -1.2261
    -29.00     -1.2520     -1.2520
    -28.00     -1.2776     -1.2776
    -27.00     -1.2819     -1.2819
    -26.00     -1.2848     -1.2848
    -25.00     -1.2881     -1.2881
    -24.00     -1.2819     -1.2819
    -23.00     -1.2741     -1.2741
    -22.00     -1.2669     -1.2669
    -21.00     -1.2552     -1.2552
    -20.00     -1.2418     -1.2418
    -19.00     -1.2160     -1.2160
    -18.00     -1.1717     -1.1717
    -17.00     -1.1259     -1.1259
    -16.00     -1.0780     -1.0780
    -15.00     -1.0345     -1.0345
    -14.00     -0.9888     -0.9888
    -13.00     -0.9462     -0.9462
    -12.00     -0.9015     -0.9015
    -11.00     -0.8543     -0.8543
    -10.00     -0.8128     -0.8128
     -9.00     -0.7203     -0.7203
     -8.00     -0.6183     -0.6183
     -7.00     -0.4934     -0.4934
     -6.00     -0.3642     -0.3642
     -5.00     -0.2320     -0.2320
     -4.00     -0.0997     -0.0997
     -3.00      0.0394      0.0394
     -2.00      0.1747      0.1747
     -1.00      0.3117      0.3117
      0.00      0.4541      0.4541
      1.00      0.5959      0.5959
      2.00      0.7355      0.7355
      3.00      0.8727      0.8727
      4.00      1.0079      1.0079
      5.00      1.1402      1.1402
      6.00      1.2696      1.2696
      7.00      1.3958      1.3958
      8.00      1.5164      1.5164
      9.00      1.6310      1.6310
     10.00      1.7371      1.7371
     11.00      1.8276      1.8276
     12.00      1.8778      1.8778
     13.00      1.9145      1.9145
     14.00      1.9386      1.9386
     15.00      1.9734      1.9734
     16.00      1.9959      1.9959
     17.00      1.9914      1.9914
     18.00      1.9798      1.9798
     19.00      1.9220      1.9220
     20.00      1.8633      1.8633
     21.00      1.8273      1.8273
     22.00      1.7971      1.7971
     23.00      1.7697      1.7697
     24.00      1.7435      1.7435
     25.00      1.7320      1.7320
     26.00      1.7086      1.7086
     27.00      1.6840      1.6840
     28.00      1.6576      1.6576
     29.00      1.6368      1.6368
     30.00      1.6206      1.6206
     31.00      1.5977      1.5977
     32.00      1.5714      1.5714
     33.00      1.5411      1.5411
     34.00      1.5032      1.5032
     35.00      1.4591      1.4591
     36.00      1.4161      1.4161
     37.00      1.3767      1.3767
     38.00      1.3382      1.3382
     39.00      1.3004      1.3004
     40.00      1.2630      1.2630
     41.00      1.2261      1.2261
     42.00      1.1896      1.1896
     43.00      1.1518      1.1518
     44.00      1.1142      1.1142
     45.00      1.0820      1.0820
     46.00      1.0570      1.0570
     47.00      1.0353      1.0353
     48.00      1.0136      1.0136
     49.00      0.9908      0.9908
     50.00      0.9680      0.9680
     51.00      0.9452      0.9452
     52.00      0.9223      0.9223
     53.00      0.8993      0.8993
     54.00      0.8763      0.8763
     55.00      0.8532      0.8532
     56.00      0.8301      0.8301
     57.00      0.8068      0.8068
     58.00      0.7833      0.7833
     59.00      0.7597      0.7597
     60.00      0.7359      0.7359
     61.00      0.7119      0.7119
     62.00      0.6877      0.6877
     63.00      0.6634      0.6634
     64.00      0.6390      0.6390
     65.00      0.6146      0.6146
     66.00      0.5900      0.5900
     67.00      0.5653      0.5653
     68.00      0.5405      0.5405
     69.00      0.5156      0.5156
     70.00      0.4905      0.4905
     71.00      0.4654      0.4654
     72.00      0.4402      0.4402
     73.00      0.4151      0.4151
     74.00      0.3899      0.3899
     75.00      0.3647      0.3647
     76.00      0.3394      0.3394
     77.00      0.3142      0.3142
     78.00      0.2891      0.2891
     79.00      0.2641      0.2641
     80.00      0.2391      0.2391
     81.00      0.2144      0.2144
     82.00      0.1898      0.1898
     83.00      0.1655      0.1655
     84.00      0.1413      0.1413
     85.00      0.1173      0.1173
     86.00      0.0934      0.0934
     87.00      0.0698      0.0698
     88.00      0.0455      0.0455
     89.00      0.0214      0.0214
     90.00      0.0000      0.0000
     91.00     -0.0175     -0.0175
     92.00     -0.0331     -0.0331
     93.00     -0.0488     -0.0488
     94.00     -0.0654     -0.0654
     95.00     -0.0821     -0.0821
     96.00     -0.0989     -0.0989
     97.00     -0.1158     -0.1158
     98.00     -0.1329     -0.1329
     99.00     -0.1501     -0.1501
    100.00     -0.1674     -0.1674
    101.00     -0.1848     -0.1848
    102.00     -0.2024     -0.2024
    103.00     -0.2200     -0.2200
    104.00     -0.2376     -0.2376
    105.00     -0.2553     -0.2553
    106.00     -0.2729     -0.2729
    107.00     -0.2905     -0.2905
    108.00     -0.3082     -0.3082
    109.00     -0.3258     -0.3258
    110.00     -0.3434     -0.3434
    111.00     -0.3609     -0.3609
    112.00     -0.3783     -0.3783
    113.00     -0.3957     -0.3957
    114.00     -0.4130     -0.4130
    115.00     -0.4302     -0.4302
    116.00     -0.4473     -0.4473
    117.00     -0.4644     -0.4644
    118.00     -0.4814     -0.4814
    119.00     -0.4983     -0.4983
    120.00     -0.5151     -0.5151
    121.00     -0.5318     -0.5318
    122.00     -0.5483     -0.5483
    123.00     -0.5648     -0.5648
    124.00     -0.5811     -0.5811
    125.00     -0.5973     -0.5973
    126.00     -0.6134     -0.6134
    127.00     -0.6295     -0.6295
    128.00     -0.6456     -0.6456
    129.00     -0.6616     -0.6616
    130.00     -0.6776     -0.6776
    131.00     -0.6936     -0.6936
    132.00     -0.7096     -0.7096
    133.00     -0.7256     -0.7256
    134.00     -0.7416     -0.7416
    135.00     -0.7577     -0.7577
    136.00     -0.7739     -0.7739
    137.00     -0.7903     -0.7903
    138.00     -0.8069     -0.8069
    139.00     -0.8237     -0.8237
    140.00     -0.8409     -0.8409
    141.00     -0.8584     -0.8584
    142.00     -0.8762     -0.8762
    143.00     -0.8944     -0.8944
    144.00     -0.9133     -0.9133
    145.00     -0.9378     -0.9378
    146.00     -0.9631     -0.9631
    147.00     -0.9748     -0.9748
    148.00     -0.9719     -0.9719
    149.00     -0.9647     -0.9647
    150.00     -0.9550     -0.9550
    151.00     -0.9376     -0.9376
    152.00     -0.9114     -0.9114
    153.00     -0.8846     -0.8846
    154.00     -0.8595     -0.8595
    155.00     -0.8337     -0.8337
    156.00     -0.8077     -0.8077
    157.00     -0.7820     -0.7820
    158.00     -0.7561     -0.7561
    159.00     -0.7284     -0.7284
    160.00     -0.6978     -0.6978
    161.00     -0.6651     -0.6651
    162.00     -0.6315     -0.6315
    163.00     -0.5971     -0.5971
    164.00     -0.5617     -0.5617
    165.00     -0.5262     -0.5262
    166.00     -0.4912     -0.4912
    167.00     -0.4561     -0.4561
    168.00     -0.4210     -0.4210
    169.00     -0.3859     -0.3859
    170.00     -0.3508     -0.3508
    171.00     -0.3157     -0.3157
    172.00     -0.2806     -0.2806
    173.00     -0.2455     -0.2455
    174.00     -0.2104     -0.2104
    175.00     -0.1752     -0.1752
    176.00     -0.1401     -0.1401
    177.00     -0.1050     -0.1050
    178.00     -0.0700     -0.0700
    179.00     -0.0350     -0.0350
    180.00     -0.0000     -0.0000
                0.0000      1.0000
   -180.00      0.0485      0.0485
   -179.00      0.0487      0.0487
   -178.00      0.0490      0.0490
   -177.00      0.0495      0.0495
   -176.00      0.0501      0.0501
   -175.00      0.0509      0.0509
   -174.00      0.0519      0.0519
   -173.00      0.0530      0.0530
   -172.00      0.0543      0.0543
   -171.00      0.0559      0.0559
   -170.00      0.0578      0.0578
   -169.00      0.0603      0.0603
   -168.00      0.0634      0.0634
   -167.00      0.0681      0.0681
   -166.00      0.0746      0.0746
   -165.00      0.0822      0.0822
   -164.00      0.0914      0.0914
   -163.00      0.1026      0.1026
   -162.00      0.1143      0.1143
   -161.00      0.1263      0.1263
   -160.00      0.1390      0.1390
   -159.00      0.1527      0.1527
   -158.00      0.1679      0.1679
   -157.00      0.1845      0.1845
   -156.00      0.2014      0.2014
   -155.00      0.2185      0.2185
   -154.00      0.2359      0.2359
   -153.00      0.2537      0.2537
   -152.00      0.2718      0.2718
   -151.00      0.2903      0.2903
   -150.00      0.3094      0.3094
   -149.00      0.3293      0.3293
   -148.00      0.3500      0.3500
   -147.00      0.3709      0.3709
   -146.00      0.3920      0.3920
   -145.00      0.4134      0.4134
   -144.00      0.4351      0.4351
   -143.00      0.4569      0.4569
   -142.00      0.4788      0.4788
   -141.00      0.5010      0.5010
   -140.00      0.5233      0.5233
   -139.00      0.5457      0.5457
   -138.00      0.5682      0.5682
   -137.00      0.5908      0.5908
   -136.00      0.6135      0.6135
   -135.00      0.6362      0.6362
   -134.00      0.6589      0.6589
   -133.00      0.6817      0.6817
   -132.00      0.7043      0.7043
   -131.00      0.7269      0.7269
   -130.00      0.7493      0.7493
   -129.00      0.7715      0.7715
   -128.00      0.7935      0.7935
   -127.00      0.8154      0.8154
   -126.00      0.8372      0.8372
   -125.00      0.8588      0.8588
   -124.00      0.8803      0.8803
   -123.00      0.9014      0.9014
   -122.00      0.9222      0.9222
   -121.00      0.9426      0.9426
   -120.00      0.9625      0.9625
   -119.00      0.9817      0.9817
   -118.00      1.0006      1.0006
   -117.00      1.0190      1.0190
   -116.00      1.0372      1.0372
   -115.00      1.0551      1.0551
   -114.00      1.0726      1.0726
   -113.00      1.0897      1.0897
   -112.00      1.1064      1.1064
   -111.00      1.1222      1.1222
   -110.00      1.1371      1.1371
   -109.00      1.1511      1.1511
   -108.00      1.1646      1.1646
   -107.00      1.1776      1.1776
   -106.00      1.1900      1.1900
   -105.00      1.2020      1.2020
   -104.00      1.2135      1.2135
   -103.00      1.2246      1.2246
   -102.00      1.2348      1.2348
   -101.00      1.2441      1.2441
   -100.00      1.2526      1.2526
    -99.00      1.2601      1.2601
    -98.00      1.2666      1.2666
    -97.00      1.2724      1.2724
    -96.00      1.2775      1.2775
    -95.00      1.2821      1.2821
    -94.00      1.2862      1.2862
    -93.00      1.2896      1.2896
    -92.00      1.2927      1.2927
    -91.00      1.2954      1.2954
    -90.00      1.2965      1.2965
    -89.00      1.2954      1.2954
    -88.00      1.2927      1.2927
    -87.00      1.2896      1.2896
    -86.00      1.2862      1.2862
    -85.00      1.2821      1.2821
    -84.00      1.2775      1.2775
    -83.00      1.2724      1.2724
    -82.00      1.2666      1.2666
    -81.00      1.2601      1.2601
    -80.00      1.2526      1.2526
    -79.00      1.2441      1.2441
    -78.00      1.2348      1.2348
    -77.00      1.2246      1.2246
    -76.00      1.2135      1.2135
    -75.00      1.2020      1.2020
    -74.00      1.1900      1.1900
    -73.00      1.1776      1.1776
    -72.00      1.1646      1.1646
    -71.00      1.1511      1.1511
    -70.00      1.1371      1.1371
    -69.00      1.1222      1.1222
    -68.00      1.1064      1.1064
    -67.00      1.0897      1.0897
    -66.00      1.0726      1.0726
    -65.00      1.0551      1.0551
    -64.00      1.0372      1.0372
    -63.00      1.0190      1.0190
    -62.00      1.0006      1.0006
    -61.00      0.9817      0.9817
    -60.00      0.9625      0.9625
    -59.00      0.9426      0.9426
    -58.00      0.9222      0.9222
    -57.00      0.9014      0.9014
    -56.00      0.8803      0.8803
    -55.00      0.8588      0.8588
    -54.00      0.8372      0.8372
    -53.00      0.8154      0.8154
    -52.00      0.7935      0.7935
    -51.00      0.7715      0.7715
    -50.00      0.7493      0.7493
    -49.00      0.7269      0.7269
    -48.00      0.7043      0.7043
    -47.00      0.6817      0.6817
    -46.00      0.6589      0.6589
    -45.00      0.6362      0.6362
    -44.00      0.6135      0.6135
    -43.00      0.5908      0.5908
    -42.00      0.5682      0.5682
    -41.00      0.5457      0.5457
    -40.00      0.5233      0.5233
    -39.00      0.5010      0.5010
    -38.00      0.4788      0.4788
    -37.00      0.4569      0.4569
    -36.00      0.4351      0.4351
    -35.00      0.4143      0.4143
    -34.00      0.3937      0.3937
    -33.00      0.3709      0.3709
    -32.00      0.3440      0.3440
    -31.00      0.3140      0.3140
    -30.00      0.2822      0.2822
    -29.00      0.2484      0.2484
    -28.00      0.2175      0.2175
    -27.00      0.2023      0.2023
    -26.00      0.1906      0.1906
    -25.00      0.1788      0.1788
    -24.00      0.1668      0.1668
    -23.00      0.1548      0.1548
    -22.00      0.1428      0.1428
    -21.00      0.1308      0.1308
    -20.00      0.1192      0.1192
    -19.00      0.1111      0.1111
    -18.00      0.1031      0.1031
    -17.00      0.0952      0.0952
    -16.00      0.0875      0.0875
    -15.00      0.0801      0.0801
    -14.00      0.0730      0.0730
    -13.00      0.0662      0.0662
    -12.00      0.0597      0.0597
    -11.00      0.0537      0.0537
    -10.00      0.0477      0.0477
     -9.00      0.0429      0.0429
     -8.00      0.0383      0.0383
     -7.00      0.0353      0.0353
     -6.00      0.0326      0.0326
     -5.00      0.0306      0.0306
     -4.00      0.0287      0.0287
     -3.00      0.0279      0.0279
     -2.00      0.0272      0.0272
     -1.00      0.0268      0.0268
      0.00      0.0267      0.0267
      1.00      0.0267      0.0267
      2.00      0.0269      0.0269
      3.00      0.0272      0.0272
      4.00      0.0276      0.0276
      5.00      0.0282      0.0282
      6.00      0.0289      0.0289
      7.00      0.0298      0.0298
      8.00      0.0310      0.0310
      9.00      0.0325      0.0325
     10.00      0.0347      0.0347
     11.00      0.0387      0.0387
     12.00      0.0451      0.0451
     13.00      0.0538      0.0538
     14.00      0.0638      0.0638
     15.00      0.0730      0.0730
     16.00      0.0836      0.0836
     17.00      0.0979      0.0979
     18.00      0.1127      0.1127
     19.00      0.1290      0.1290
     20.00      0.1452      0.1452
     21.00      0.1610      0.1610
     22.00      0.1761      0.1761
     23.00      0.1914      0.1914
     24.00      0.2076      0.2076
     25.00      0.2248      0.2248
     26.00      0.2426      0.2426
     27.00      0.2605      0.2605
     28.00      0.2784      0.2784
     29.00      0.2963      0.2963
     30.00      0.3145      0.3145
     31.00      0.3334      0.3334
     32.00      0.3528      0.3528
     33.00      0.3727      0.3727
     34.00      0.3934      0.3934
     35.00      0.4147      0.4147
     36.00      0.4362      0.4362
     37.00      0.4579      0.4579
     38.00      0.4798      0.4798
     39.00      0.5018      0.5018
     40.00      0.5240      0.5240
     41.00      0.5464      0.5464
     42.00      0.5688      0.5688
     43.00      0.5913      0.5913
     44.00      0.6140      0.6140
     45.00      0.6366      0.6366
     46.00      0.6592      0.6592
     47.00      0.6819      0.6819
     48.00      0.7045      0.7045
     49.00      0.7269      0.7269
     50.00      0.7493      0.7493
     51.00      0.7715      0.7715
     52.00      0.7935      0.7935
     53.00      0.8154      0.8154
     54.00      0.8372      0.8372
     55.00      0.8588      0.8588
     56.00      0.8803      0.8803
     57.00      0.9014      0.9014
     58.00      0.9222      0.9222
     59.00      0.9426      0.9426
     60.00      0.9625      0.9625
     61.00      0.9817      0.9817
     62.00      1.0006      1.0006
     63.00      1.0190      1.0190
     64.00      1.0372      1.0372
     65.00      1.0551      1.0551
     66.00      1.0726      1.0726
     67.00      1.0897      1.0897
     68.00      1.1064      1.1064
     69.00      1.1222      1.1222
     70.00      1.1371      1.1371
     71.00      1.1511      1.1511
     72.00      1.1646      1.1646
     73.00      1.1776      1.1776
     74.00      1.1900      1.1900
     75.00      1.2020      1.2020
     76.00      1.2135      1.2135
     77.00      1.2246      1.2246
     78.00      1.2348      1.2348
     79.00      1.2441      1.2441
     80.00      1.2526      1.2526
     81.00      1.2601      1.2601
     82.00      1.2666      1.2666
     83.00      1.2724      1.2724
     84.00      1.2775      1.2775
     85.00      1.2821      1.2821
     86.00      1.2862      1.2862
     87.00      1.2896      1.2896
     88.00      1.2927      1.2927
     89.00      1.2954      1.2954
     90.00      1.2965      1.2965
     91.00      1.2954      1.2954
     92.00      1.2927      1.2927
     93.00      1.2896      1.2896
     94.00      1.2862      1.2862
     95.00      1.2821      1.2821
     96.00      1.2775      1.2775
     97.00      1.2724      1.2724
     98.00      1.2666      1.2666
     99.00      1.2601      1.2601
    100.00      1.2526      1.2526
    101.00      1.2441      1.2441
    102.00      1.2348      1.2348
    103.00      1.2246      1.2246
    104.00      1.2135      1.2135
    105.00      1.2020      1.2020
    106.00      1.1900      1.1900
    107.00      1.1776      1.1776
    108.00      1.1646      1.1646
    109.00      1.1511      1.1511
    110.00      1.1371      1.1371
    111.00      1.1222      1.1222
    112.00      1.1064      1.1064
    113.00      1.0897      1.0897
    114.00      1.0726      1.0726
    115.00      1.0551      1.0551
    116.00      1.0372      1.0372
    117.00      1.0190      1.0190
    118.00      1.0006      1.0006
    119.00      0.9817      0.9817
    120.00      0.9625      0.9625
    121.00      0.9426      0.9426
    122.00      0.9222      0.9222
    123.00      0.9014      0.9014
    124.00      0.8803      0.8803
    125.00      0.8588      0.8588
    126.00      0.8372      0.8372
    127.00      0.8154      0.8154
    128.00      0.7935      0.7935
    129.00      0.7715      0.7715
    130.00      0.7493      0.7493
    131.00      0.7269      0.7269
    132.00      0.7043      0.7043
    133.00      0.6817      0.6817
    134.00      0.6589      0.6589
    135.00      0.6362      0.6362
    136.00      0.6135      0.6135
    137.00      0.5908      0.5908
    138.00      0.5682      0.5682
    139.00      0.5457      0.5457
    140.00      0.5233      0.5233
    141.00      0.5010      0.5010
    142.00      0.4788      0.4788
    143.00      0.4569      0.4569
    144.00      0.4351      0.4351
    145.00      0.4134      0.4134
    146.00      0.3920      0.3920
    147.00      0.3709      0.3709
    148.00      0.3500      0.3500
    149.00      0.3293      0.3293
    150.00      0.3094      0.3094
    151.00      0.2903      0.2903
    152.00      0.2718      0.2718
    153.00      0.2537      0.2537
    154.00      0.2359      0.2359
    155.00      0.2185      0.2185
    156.00      0.2014      0.2014
    157.00      0.1845      0.1845
    158.00      0.1679      0.1679
    159.00      0.1527      0.1527
    160.00      0.1390      0.1390
    161.00      0.1263      0.1263
    162.00      0.1143      0.1143
    163.00      0.1026      0.1026
    164.00      0.0914      0.0914
    165.00      0.0822      0.0822
    166.00      0.0746      0.0746
    167.00      0.0681      0.0681
    168.00      0.0634      0.0634
    169.00      0.0603      0.0603
    170.00      0.0578      0.0578
    171.00      0.0559      0.0559
    172.00      0.0543      0.0543
    173.00      0.0530      0.0530
    174.00      0.0519      0.0519
    175.00      0.0509      0.0509
    176.00      0.0501      0.0501
    177.00      0.0495      0.0495
    178.00      0.0490      0.0490
    179.00      0.0487      0.0487
    180.00      0.0485      0.0485
                0.0000      1.0000
   -180.00      0.0000      0.0000
   -179.00      0.0386      0.0386
   -178.00      0.0772      0.0772
   -177.00      0.1158      0.1158
   -176.00      0.1544      0.1544
   -175.00      0.1931      0.1931
   -174.00      0.2318      0.2318
   -173.00      0.2745      0.2745
   -172.00      0.3173      0.3173
   -171.00      0.3478      0.3478
   -170.00      0.3669      0.3669
   -169.00      0.3817      0.3817
   -168.00      0.3889      0.3889
   -167.00      0.3905      0.3905
   -166.00      0.3915      0.3915
   -165.00      0.3925      0.3925
   -164.00      0.3936      0.3936
   -163.00      0.3946      0.3946
   -162.00      0.3960      0.3960
   -161.00      0.3980      0.3980
   -160.00      0.4007      0.4007
   -159.00      0.4040      0.4040
   -158.00      0.4088      0.4088
   -157.00      0.4149      0.4149
   -156.00      0.4210      0.4210
   -155.00      0.4267      0.4267
   -154.00      0.4325      0.4325
   -153.00      0.4379      0.4379
   -152.00      0.4439      0.4439
   -151.00      0.4496      0.4496
   -150.00      0.4522      0.4522
   -149.00      0.4498      0.4498
   -148.00      0.4445      0.4445
   -147.00      0.4389      0.4389
   -146.00      0.4337      0.4337
   -145.00      0.4282      0.4282
   -144.00      0.4226      0.4226
   -143.00      0.4168      0.4168
   -142.00      0.4111      0.4111
   -141.00      0.4060      0.4060
   -140.00      0.4018      0.4018
   -139.00      0.3981      0.3981
   -138.00      0.3948      0.3948
   -137.00      0.3919      0.3919
   -136.00      0.3894      0.3894
   -135.00      0.3869      0.3869
   -134.00      0.3841      0.3841
   -133.00      0.3813      0.3813
   -132.00      0.3791      0.3791
   -131.00      0.3774      0.3774
   -130.00      0.3760      0.3760
   -129.00      0.3750      0.3750
   -128.00      0.3743      0.3743
   -127.00      0.3738      0.3738
   -126.00      0.3735      0.3735
   -125.00      0.3734      0.3734
   -124.00      0.3733      0.3733
   -123.00      0.3733      0.3733
   -122.00      0.3733      0.3733
   -121.00      0.3733      0.3733
   -120.00      0.3734      0.3734
   -119.00      0.3737      0.3737
   -118.00      0.3742      0.3742
   -117.00      0.3747      0.3747
   -116.00      0.3753      0.3753
   -115.00      0.3759      0.3759
   -114.00      0.3764      0.3764
   -113.00      0.3771      0.3771
   -112.00      0.3777      0.3777
   -111.00      0.3782      0.3782
   -110.00      0.3784      0.3784
   -109.00      0.3786      0.3786
   -108.00      0.3788      0.3788
   -107.00      0.3789      0.3789
   -106.00      0.3790      0.3790
   -105.00      0.3791      0.3791
   -104.00      0.3791      0.3791
   -103.00      0.3791      0.3791
   -102.00      0.3791      0.3791
   -101.00      0.3789      0.3789
   -100.00      0.3785      0.3785
    -99.00      0.3779      0.3779
    -98.00      0.3772      0.3772
    -97.00      0.3761      0.3761
    -96.00      0.3750      0.3750
    -95.00      0.3740      0.3740
    -94.00      0.3729      0.3729
    -93.00      0.3718      0.3718
    -92.00      0.3708      0.3708
    -91.00      0.3698      0.3698
    -90.00      0.3685      0.3685
    -89.00      0.3662      0.3662
    -88.00      0.3631      0.3631
    -87.00      0.3599      0.3599
    -86.00      0.3571      0.3571
    -85.00      0.3543      0.3543
    -84.00      0.3514      0.3514
    -83.00      0.3485      0.3485
    -82.00      0.3456      0.3456
    -81.00      0.3426      0.3426
    -80.00      0.3393      0.3393
    -79.00      0.3359      0.3359
    -78.00      0.3324      0.3324
    -77.00      0.3288      0.3288
    -76.00      0.3250      0.3250
    -75.00      0.3213      0.3213