IEA-15-240-RWT_AeroDyn15_Polar_18; 2 361 2 361 2 361
                0.0000      1.0000
   -180.00      0.0000      0.0000
   -179.00      0.0298      0.0298
   -178.00      0.0596      0.0596
   -177.00      0.0894      0.0894
   -176.00      0.1192      0.1192
   -175.00      0.1490      0.1490
   -174.00      0.1788      0.1788
   -173.00      0.2086      0.2086
   -172.00      0.2383      0.2383
   -171.00      0.2681      0.2681
   -170.00      0.2979      0.2979
   -169.00      0.3277      0.3277
   -168.00      0.3575      0.3575
   -167.00      0.3873      0.3873
   -166.00      0.4171      0.4171
   -165.00      0.4469      0.4469
   -164.00      0.4767      0.4767
   -163.00      0.5065      0.5065
   -162.00      0.5363      0.5363
   -161.00      0.5661      0.5661
   -160.00      0.5959      0.5959
   -159.00      0.6256      0.6256
   -158.00      0.6554      0.6554
   -157.00      0.6852      0.6852
   -156.00      0.7150      0.7150
   -155.00      0.7448      0.7448
   -154.00      0.7746      0.7746
   -153.00      0.8044      0.8044
   -152.00      0.8367      0.8367
   -151.00      0.8689      0.8689
   -150.00      0.8938      0.8938
   -149.00      0.9128      0.9128
   -148.00      0.9283      0.9283
   -147.00      0.9348      0.9348
   -146.00      0.9242      0.9242
   -145.00      0.9013      0.9013
   -144.00      0.8791      0.8791
   -143.00      0.8622      0.8622
   -142.00      0.8459      0.8459
   -141.00      0.8298      0.8298
   -140.00      0.8139      0.8139
   -139.00      0.7982      0.7982
   -138.00      0.7827      0.7827
   -137.00      0.7673      0.7673
   -136.00      0.7521      0.7521
   -135.00      0.7370      0.7370
   -134.00      0.7220      0.7220
   -133.00      0.7072      0.7072
   -132.00      0.6924      0.6924
   -131.00      0.6775      0.6775
   -130.00      0.6627      0.6627
   -129.00      0.6478      0.6478
   -128.00      0.6328      0.6328
   -127.00      0.6177      0.6177
   -126.00      0.6025      0.6025
   -125.00      0.5873      0.5873
   -124.00      0.5720      0.5720
   -123.00      0.5564      0.5564
   -122.00      0.5407      0.5407
   -121.00      0.5248      0.5248
   -120.00      0.5088      0.5088
   -119.00      0.4926      0.4926
   -118.00      0.4763      0.4763
   -117.00      0.4599      0.4599
   -116.00      0.4434      0.4434
   -115.00      0.4268      0.4268
   -114.00      0.4101      0.4101
   -113.00      0.3932      0.3932
   -112.00      0.3762      0.3762
   -111.00      0.3592      0.3592
   -110.00      0.3420      0.3420
   -109.00      0.3247      0.3247
   -108.00      0.3073      0.3073
   -107.00      0.2899      0.2899
   -106.00      0.2725      0.2725
   -105.00      0.2551      0.2551
   -104.00      0.2376      0.2376
   -103.00      0.2201      0.2201
   -102.00      0.2027      0.2027
   -101.00      0.1853      0.1853
   -100.00      0.1679      0.1679
    -99.00      0.1505      0.1505
    -98.00      0.1333      0.1333
    -97.00      0.1162      0.1162
    -96.00      0.0992      0.0992
    -95.00      0.0824      0.0824
    -94.00      0.0656      0.0656
    -93.00      0.0490      0.0490
    -92.00      0.0326      0.0326
    -91.00      0.0163      0.0163
    -90.00     -0.0000     -0.0000
    -89.00     -0.0163     -0.0163
    -88.00     -0.0326     -0.0326
    -87.00     -0.0490     -0.0490
    -86.00     -0.0656     -0.0656
    -85.00     -0.0824     -0.0824
    -84.00     -0.0992     -0.0992
    -83.00     -0.1162     -0.1162
    -82.00     -0.1333     -0.1333
    -81.00     -0.1505     -0.1505
    -80.00     -0.1679     -0.1679
    -79.00     -0.1853     -0.1853
    -78.00     -0.2027     -0.2027
    -77.00     -0.2201     -0.2201
    -76.00     -0.2376     -0.2376
    -75.00     -0.2551     -0.2551
    -74.00     -0.2725     -0.2725
    -73.00     -0.2899     -0.2899
    -72.00     -0.3073     -0.3073
    -71.00     -0.3247     -0.3247
    -70.00     -0.3420     -0.3420
    -69.00     -0.3592     -0.3592
    -68.00     -0.3762     -0.3762
    -67.00     -0.3932     -0.3932
    -66.00     -0.4101     -0.4101
    -65.00     -0.4268     -0.4268
    -64.00     -0.4434     -0.4434
    -63.00     -0.4599     -0.4599
    -62.00     -0.4763     -0.4763
    -61.00     -0.4926     -0.4926
    -60.00     -0.5088     -0.5088
    -59.00     -0.5248     -0.5248
    -58.00     -0.5407     -0.5407
    -57.00     -0.5564     -0.5564
    -56.00     -0.5720     -0.5720
    -55.00     -0.5873     -0.5873
    -54.00     -0.6025     -0.6025
    -53.00     -0.6177     -0.6177
    -52.00     -0.6328     -0.6328
    -51.00     -0.6478     -0.6478
    -50.00     -0.6627     -0.6627
    -49.00     -0.6775     -0.6775
    -48.00     -0.6924     -0.6924
    -47.00     -0.7065     -0.7065
    -46.00     -0.7205     -0.7205
    -45.00     -0.7370     -0.7370
    -44.00     -0.7588     -0.7588
    -43.00     -0.7845     -0.7845
    -42.00     -0.8098     -0.8098
    -41.00     -0.8332     -0.8332
    -40.00     -0.8561     -0.8561
    -39.00     -0.8787     -0.8787
    -38.00     -0.9008     -0.9008
    -37.00     -0.9225     -0.9225
    -36.00     -0.9444     -0.9444
    -35.00     -0.9650     -0.9650
    -34.00     -0.9858     -0.9858
    -33.00     -1.0109     -1.0109
    -32.00     -1.0455     -1.0455
    -31.00     -1.0880     -1.0880
    -30.00     -1.1327     -1.1327
    -29.00     -1.1789     -1.1789
    -28.00     -1.2194     -1.2194
    -27.00     -1.2225     -1.2225
    -26.00     -1.2201     -1.2201
    -25.00     -1.2169     -1.2169
    -24.00     -1.2097     -1.2097
    -23.00     -1.1960     -1.1960
    -22.00     -1.1812     -1.1812
    -21.00     -1.1684     -1.1684
    -20.00     -1.1580     -1.1580
    -19.00     -1.1449     -1.1449
    -18.00     -1.1307     -1.1307
    -17.00     -1.1149     -1.1149
    -16.00     -1.0989     -1.0989
    -15.00     -1.0861     -1.0861
    -14.00     -1.0735     -1.0735
    -13.00     -1.0610     -1.0610
    -12.00     -1.0430     -1.0430
    -11.00     -0.9805     -0.9805
    -10.00     -0.9114     -0.9114
     -9.00     -0.7989     -0.7989
     -8.00     -0.6855     -0.6855
     -7.00     -0.5651     -0.5651
     -6.00     -0.4419     -0.4419
     -5.00     -0.3058     -0.3058
     -4.00     -0.1676     -0.1676
     -3.00     -0.0233     -0.0233
     -2.00      0.1213      0.1213
     -1.00      0.2648      0.2648
      0.00      0.4064      0.4064
      1.00      0.5461      0.5461
      2.00      0.6836      0.6836
      3.00      0.8190      0.8190
      4.00      0.9526      0.9526
      5.00      1.0840      1.0840
      6.00      1.2131      1.2131
      7.00      1.3399      1.3399
      8.00      1.4626      1.4626
      9.00      1.5811      1.5811
     10.00      1.6942      1.6942
     11.00      1.7993      1.7993
     12.00      1.8900      1.8900
     13.00      1.9610      1.9610
     14.00      1.9980      1.9980
     15.00      2.0163      2.0163
     16.00      2.0220      2.0220
     17.00      2.0092      2.0092
     18.00      1.9927      1.9927
     19.00      1.9246      1.9246
     20.00      1.8554      1.8554
     21.00      1.7976      1.7976
     22.00      1.7414      1.7414
     23.00      1.6851      1.6851
     24.00      1.6301      1.6301
     25.00      1.6091      1.6091
     26.00      1.5852      1.5852
     27.00      1.5599      1.5599
     28.00      1.5344      1.5344
     29.00      1.5158      1.5158
     30.00      1.4946      1.4946
     31.00      1.4713      1.4713
     32.00      1.4470      1.4470
     33.00      1.4209      1.4209
     34.00      1.3915      1.3915
     35.00      1.3598      1.3598
     36.00      1.3285      1.3285
     37.00      1.2987      1.2987
     38.00      1.2693      1.2693
     39.00      1.2395      1.2395
     40.00      1.2093      1.2093
     41.00      1.1788      1.1788
     42.00      1.1479      1.1479
     43.00      1.1151      1.1151
     44.00      1.0819      1.0819
     45.00      1.0529      1.0529
     46.00      1.0297      1.0297
     47.00      1.0094      1.0094
     48.00      0.9891      0.9891
     49.00      0.9679      0.9679
     50.00      0.9467      0.9467
     51.00      0.9254      0.9254
     52.00      0.9040      0.9040
     53.00      0.8824      0.8824
     54.00      0.8608      0.8608
     55.00      0.8390      0.8390
     56.00      0.8171      0.8171
     57.00      0.7949      0.7949
     58.00      0.7724      0.7724
     59.00      0.7497      0.7497
     60.00      0.7268      0.7268
     61.00      0.7037      0.7037
     62.00      0.6804      0.6804
     63.00      0.6570      0.6570
     64.00      0.6335      0.6335
     65.00      0.6097      0.6097
     66.00      0.5858      0.5858
     67.00      0.5617      0.5617
     68.00      0.5375      0.5375
     69.00      0.5131      0.5131
     70.00      0.4885      0.4885
     71.00      0.4638      0.4638
     72.00      0.4390      0.4390
     73.00      0.4142      0.4142
     74.00      0.3893      0.3893
     75.00      0.3644      0.3644
     76.00      0.3395      0.3395
     77.00      0.3145      0.3145
     78.00      0.2896      0.2896
     79.00      0.2647      0.2647
     80.00      0.2398      0.2398
     81.00      0.2151      0.2151
     82.00      0.1905      0.1905
     83.00      0.1660      0.1660
     84.00      0.1418      0.1418
     85.00      0.1177      0.1177
     86.00      0.0937      0.0937
     87.00      0.0700      0.0700
     88.00      0.0456      0.0456
     89.00      0.0214      0.0214
     90.00      0.0000      0.0000
     91.00     -0.0176     -0.0176
     92.00     -0.0332     -0.0332
     93.00     -0.0490     -0.0490
     94.00     -0.0656     -0.0656
     95.00     -0.0824     -0.0824
     96.00     -0.0992     -0.0992
     97.00     -0.1162     -0.1162
     98.00     -0.1333     -0.1333
     99.00     -0.1505     -0.1505
    100.00     -0.1679     -0.1679
    101.00     -0.1853     -0.1853
    102.00     -0.2027     -0.2027
    103.00     -0.2201     -0.2201
    104.00     -0.2376     -0.2376
    105.00     -0.2551     -0.2551
    106.00     -0.2725     -0.2725
    107.00     -0.2899     -0.2899
    108.00     -0.3073     -0.3073
    109.00     -0.3247     -0.3247
    110.00     -0.3420     -0.3420
    111.00     -0.3592     -0.3592
    112.00     -0.3762     -0.3762
    113.00     -0.3932     -0.3932
    114.00     -0.4101     -0.4101
    115.00     -0.4268     -0.4268
    116.00     -0.4434     -0.4434
    117.00     -0.4599     -0.4599
    118.00     -0.4763     -0.4763
    119.00     -0.4926     -0.4926
    120.00     -0.5088     -0.5088
    121.00     -0.5248     -0.5248
    122.00     -0.5407     -0.5407
    123.00     -0.5564     -0.5564
    124.00     -0.5720     -0.5720
    125.00     -0.5873     -0.5873
    126.00     -0.6025     -0.6025
    127.00     -0.6177     -0.6177
    128.00     -0.6328     -0.6328
    129.00     -0.6478     -0.6478
    130.00     -0.6627     -0.6627
    131.00     -0.6775     -0.6775
    132.00     -0.6924     -0.6924
    133.00     -0.7072     -0.7072
    134.00     -0.7220     -0.7220
    135.00     -0.7370     -0.7370
    136.00     -0.7521     -0.7521
    137.00     -0.7673     -0.7673
    138.00     -0.7827     -0.7827
    139.00     -0.7982     -0.7982
    140.00     -0.8139     -0.8139
    141.00     -0.8298     -0.8298
    142.00     -0.8459     -0.8459
    143.00     -0.8622     -0.8622
    144.00     -0.8791     -0.8791
    145.00     -0.9013     -0.9013
    146.00     -0.9242     -0.9242
    147.00     -0.9348     -0.9348
    148.00     -0.9283     -0.9283
    149.00     -0.9128     -0.9128
    150.00     -0.8938     -0.8938
    151.00     -0.8689     -0.8689
    152.00     -0.8367     -0.8367
    153.00     -0.8044     -0.8044
    154.00     -0.7746     -0.7746
    155.00     -0.7448     -0.7448
    156.00     -0.7150     -0.7150
    157.00     -0.6852     -0.6852
    158.00     -0.6554     -0.6554
    159.00     -0.6257     -0.6257
    160.00     -0.5959     -0.5959
    161.00     -0.5661     -0.5661
    162.00     -0.5363     -0.5363
    163.00     -0.5065     -0.5065
    164.00     -0.4767     -0.4767
    165.00     -0.4469     -0.4469
    166.00     -0.4171     -0.4171
    167.00     -0.3873     -0.3873
    168.00     -0.3575     -0.3575
    169.00     -0.3277     -0.3277
    170.00     -0.2979     -0.2979
    171.00     -0.2681     -0.2681
    172.00     -0.2383     -0.2383
    173.00     -0.2086     -0.2086
    174.00     -0.1788     -0.1788
    175.00     -0.1490     -0.1490
    176.00     -0.1192     -0.1192
    177.00     -0.0894     -0.0894
    178.00     -0.0596     -0.0596
    179.00     -0.0298     -0.0298
    180.00     -0.0000     -0.0000
                0.0000      1.0000
   -180.00      0.0293      0.0293
   -179.00      0.0295      0.0295
   -178.00      0.0299      0.0299
   -177.00      0.0304      0.0304
   -176.00      0.0312      0.0312
   -175.00      0.0323      0.0323
   -174.00      0.0335      0.0335
   -173.00      0.0349      0.0349
   -172.00      0.0365      0.0365
   -171.00      0.0385      0.0385
   -170.00      0.0408      0.0408
   -169.00      0.0436      0.0436
   -168.00      0.0474      0.0474
   -167.00      0.0536      0.0536
   -166.00      0.0625      0.0625
   -165.00      0.0724      0.0724
   -164.00      0.0834      0.0834
   -163.00      0.0961      0.0961
   -162.00      0.1093      0.1093
   -161.00      0.1230      0.1230
   -160.00      0.1374      0.1374
   -159.00      0.1524      0.1524
   -158.00      0.1679      0.1679
   -157.00      0.1842      0.1842
   -156.00      0.2009      0.2009
   -155.00      0.2181      0.2181
   -154.00      0.2358      0.2358
   -153.00      0.2539      0.2539
   -152.00      0.2726      0.2726
   -151.00      0.2917      0.2917
   -150.00      0.3113      0.3113
   -149.00      0.3314      0.3314
   -148.00      0.3519      0.3519
   -147.00      0.3727      0.3727
   -146.00      0.3937      0.3937
   -145.00      0.4148      0.4148
   -144.00      0.4363      0.4363
   -143.00      0.4582      0.4582
   -142.00      0.4804      0.4804
   -141.00      0.5028      0.5028
   -140.00      0.5252      0.5252
   -139.00      0.5477      0.5477
   -138.00      0.5704      0.5704
   -137.00      0.5931      0.5931
   -136.00      0.6159      0.6159
   -135.00      0.6387      0.6387
   -134.00      0.6616      0.6616
   -133.00      0.6844      0.6844
   -132.00      0.7072      0.7072
   -131.00      0.7299      0.7299
   -130.00      0.7524      0.7524
   -129.00      0.7748      0.7748
   -128.00      0.7970      0.7970
   -127.00      0.8191      0.8191
   -126.00      0.8410      0.8410
   -125.00      0.8628      0.8628
   -124.00      0.8844      0.8844
   -123.00      0.9056      0.9056
   -122.00      0.9263      0.9263
   -121.00      0.9465      0.9465
   -120.00      0.9664      0.9664
   -119.00      0.9859      0.9859
   -118.00      1.0051      1.0051
   -117.00      1.0238      1.0238
   -116.00      1.0422      1.0422
   -115.00      1.0602      1.0602
   -114.00      1.0777      1.0777
   -113.00      1.0947      1.0947
   -112.00      1.1113      1.1113
   -111.00      1.1270      1.1270
   -110.00      1.1419      1.1419
   -109.00      1.1561      1.1561
   -108.00      1.1697      1.1697
   -107.00      1.1828      1.1828
   -106.00      1.1954      1.1954
   -105.00      1.2074      1.2074
   -104.00      1.2189      1.2189
   -103.00      1.2299      1.2299
   -102.00      1.2399      1.2399
   -101.00      1.2490      1.2490
   -100.00      1.2574      1.2574
    -99.00      1.2648      1.2648
    -98.00      1.2714      1.2714
    -97.00      1.2773      1.2773
    -96.00      1.2825      1.2825
    -95.00      1.2871      1.2871
    -94.00      1.2911      1.2911
    -93.00      1.2943      1.2943
    -92.00      1.2969      1.2969
    -91.00      1.2991      1.2991
    -90.00      1.3000      1.3000
    -89.00      1.2991      1.2991
    -88.00      1.2969      1.2969
    -87.00      1.2943      1.2943
    -86.00      1.2911      1.2911
    -85.00      1.2871      1.2871
    -84.00      1.2825      1.2825
    -83.00      1.2773      1.2773
    -82.00      1.2714      1.2714
    -81.00      1.2648      1.2648
    -80.00      1.2574      1.2574
    -79.00      1.2490      1.2490
    -78.00      1.2399      1.2399
    -77.00      1.2299      1.2299
    -76.00      1.2189      1.2189
    -75.00      1.2074      1.2074
    -74.00      1.1954      1.1954
    -73.00      1.1828      1.1828
    -72.00      1.1697      1.1697
    -71.00      1.1561      1.1561
    -70.00      1.1419      1.1419
    -69.00      1.1270      1.1270
    -68.00      1.1113      1.1113
    -67.00      1.0947      1.0947
    -66.00      1.0777      1.0777
    -65.00      1.0602      1.0602
    -64.00      1.0422      1.0422
    -63.00      1.0238      1.0238
    -62.00      1.0051      1.0051
    -61.00      0.9859      0.9859
    -60.00      0.9664      0.9664
    -59.00      0.9465      0.9465
    -58.00      0.9263      0.9263
    -57.00      0.9056      0.9056
    -56.00      0.8844      0.8844
    -55.00      0.8628      0.8628
    -54.00      0.8410      0.8410
    -53.00      0.8191      0.8191
    -52.00      0.7970      0.7970
    -51.00      0.7748      0.7748
    -50.00      0.7524      0.7524
    -49.00      0.7299      0.7299
    -48.00      0.7072      0.7072
    -47.00      0.6844      0.6844
    -46.00      0.6616      0.6616
    -45.00      0.6387      0.6387
    -44.00      0.6159      0.6159
    -43.00      0.5931      0.5931
    -42.00      0.5704      0.5704
    -41.00      0.5477      0.5477
    -40.00      0.5252      0.5252
    -39.00      0.5028      0.5028
    -38.00      0.4804      0.4804
    -37.00      0.4582      0.4582
    -36.00      0.4363      0.4363
    -35.00      0.4158      0.4158
    -34.00      0.3956      0.3956
    -33.00      0.3727      0.3727
    -32.00      0.3450      0.3450
    -31.00      0.3134      0.3134
    -30.00      0.2801      0.2801
    -29.00      0.2448      0.2448
    -28.00      0.2118      0.2118
    -27.00      0.1950      0.1950
    -26.00      0.1805      0.1805
    -25.00      0.1660      0.1660
    -24.00      0.1516      0.1516
    -23.00      0.1399      0.1399
    -22.00      0.1284      0.1284
    -21.00      0.1167      0.1167
    -20.00      0.1050      0.1050
    -19.00      0.0948      0.0948
    -18.00      0.0849      0.0849
    -17.00      0.0761      0.0761
    -16.00      0.0675      0.0675
    -15.00      0.0595      0.0595
    -14.00      0.0516      0.0516
    -13.00      0.0445      0.0445
    -12.00      0.0376      0.0376
    -11.00      0.0323      0.0323
    -10.00      0.0271      0.0271
     -9.00      0.0239      0.0239
     -8.00      0.0207      0.0207
     -7.00      0.0184      0.0184
     -6.00      0.0164      0.0164
     -5.00      0.0151      0.0151
     -4.00      0.0139      0.0139
     -3.00      0.0134      0.0134
     -2.00      0.0129      0.0129
     -1.00      0.0127      0.0127
      0.00      0.0127      0.0127
      1.00      0.0127      0.0127
      2.00      0.0128      0.0128
      3.00      0.0130      0.0130
      4.00      0.0133      0.0133
      5.00      0.0137      0.0137
      6.00      0.0141      0.0141
      7.00      0.0147      0.0147
      8.00      0.0154      0.0154
      9.00      0.0163      0.0163
     10.00      0.0174      0.0174
     11.00      0.0189      0.0189
     12.00      0.0211      0.0211
     13.00      0.0244      0.0244
     14.00      0.0303      0.0303
     15.00      0.0382      0.0382
     16.00      0.0480      0.0480
     17.00      0.0599      0.0599
     18.00      0.0724      0.0724
     19.00      0.0901      0.0901
     20.00      0.1085      0.1085
     21.00      0.1290      0.1290
     22.00      0.1499      0.1499
     23.00      0.1708      0.1708
     24.00      0.1912      0.1912
     25.00      0.2115      0.2115
     26.00      0.2318      0.2318
     27.00      0.2521      0.2521
     28.00      0.2724      0.2724
     29.00      0.2922      0.2922
     30.00      0.3120      0.3120
     31.00      0.3320      0.3320
     32.00      0.3522      0.3522
     33.00      0.3727      0.3727
     34.00      0.3936      0.3936
     35.00      0.4148      0.4148
     36.00      0.4363      0.4363
     37.00      0.4582      0.4582
     38.00      0.4804      0.4804
     39.00      0.5028      0.5028
     40.00      0.5252      0.5252
     41.00      0.5477      0.5477
     42.00      0.5704      0.5704
     43.00      0.5931      0.5931
     44.00      0.6159      0.6159
     45.00      0.6387      0.6387
     46.00      0.6616      0.6616
     47.00      0.6844      0.6844
     48.00      0.7072      0.7072
     49.00      0.7299      0.7299
     50.00      0.7524      0.7524
     51.00      0.7748      0.7748
     52.00      0.7970      0.7970
     53.00      0.8191      0.8191
     54.00      0.8410      0.8410
     55.00      0.8628      0.8628
     56.00      0.8844      0.8844
     57.00      0.9056      0.9056
     58.00      0.9263      0.9263
     59.00      0.9465      0.9465
     60.00      0.9664      0.9664
     61.00      0.9859      0.9859
     62.00      1.0051      1.0051
     63.00      1.0238      1.0238
     64.00      1.0422      1.0422
     65.00      1.0602      1.0602
     66.00      1.0777      1.0777
     67.00      1.0947      1.0947
     68.00      1.1113      1.1113
     69.00      1.1270      1.1270
     70.00      1.1419      1.1419
     71.00      1.1561      1.1561
     72.00      1.1697      1.1697
     73.00      1.1828      1.1828
     74.00      1.1954      1.1954
     75.00      1.2074      1.2074
     76.00      1.2189      1.2189
     77.00      1.2299      1.2299
     78.00      1.2399      1.2399
     79.00      1.2490      1.2490
     80.00      1.2574      1.2574
     81.00      1.2648      1.2648
     82.00      1.2714      1.2714
     83.00      1.2773      1.2773
     84.00      1.2825      1.2825
     85.00      1.2871      1.2871
     86.00      1.2911      1.2911
     87.00      1.2943      1.2943
     88.00      1.2969      1.2969
     89.00      1.2991      1.2991
     90.00      1.3000      1.3000
     91.00      1.2991      1.2991
     92.00      1.2969      1.2969
     93.00      1.2943      1.2943
     94.00      1.2911      1.2911
     95.00      1.2871      1.2871
     96.00      1.2825      1.2825
     97.00      1.2773      1.2773
     98.00      1.2714      1.2714
     99.00      1.2648      1.2648
    100.00      1.2574      1.2574
    101.00      1.2490      1.2490
    102.00      1.2399      1.2399
    103.00      1.2299      1.2299
    104.00      1.2189      1.2189
    105.00      1.2074      1.2074
    106.00      1.1954      1.1954
    107.00      1.1828      1.1828
    108.00      1.1697      1.1697
    109.00      1.1561      1.1561
    110.00      1.1419      1.1419
    111.00      1.1270      1.1270
    112.00      1.1113      1.1113
    113.00      1.0947      1.0947
    114.00      1.0777      1.0777
    115.00      1.0602      1.0602
    116.00      1.0422      1.0422
    117.00      1.0238      1.0238
    118.00      1.0051      1.0051
    119.00      0.9859      0.9859
    120.00      0.9664      0.9664
    121.00      0.9465      0.9465
    122.00      0.9263      0.9263
    123.00      0.9056      0.9056
    124.00      0.8844      0.8844
    125.00      0.8628      0.8628
    126.00      0.8410      0.8410
    127.00      0.8191      0.8191
    128.00      0.7970      0.7970
    129.00      0.7748      0.7748
    130.00      0.7524      0.7524
    131.00      0.7299      0.7299
    132.00      0.7072      0.7072
    133.00      0.6844      0.6844
    134.00      0.6616      0.6616
    135.00      0.6387      0.6387
    136.00      0.6159      0.6159
    137.00      0.5931      0.5931
    138.00      0.5704      0.5704
    139.00      0.5477      0.5477
    140.00      0.5252      0.5252
    141.00      0.5028      0.5028
    142.00      0.4804      0.4804
    143.00      0.4582      0.4582
    144.00      0.4363      0.4363
    145.00      0.4148      0.4148
    146.00      0.3937      0.3937
    147.00      0.3727      0.3727
    148.00      0.3519      0.3519
    149.00      0.3314      0.3314
    150.00      0.3113      0.3113
    151.00      0.2917      0.2917
    152.00      0.2726      0.2726
    153.00      0.2539      0.2539
    154.00      0.2358      0.2358
    155.00      0.2181      0.2181
    156.00      0.2009      0.2009
    157.00      0.1842      0.1842
    158.00      0.1679      0.1679
    159.00      0.1524      0.1524
    160.00      0.1374      0.1374
    161.00      0.1230      0.1230
    162.00      0.1093      0.1093
    163.00      0.0961      0.0961
    164.00      0.0834      0.0834
    165.00      0.0724      0.0724
    166.00      0.0625      0.0625
    167.00      0.0536      0.0536
    168.00      0.0474      0.0474
    169.00      0.0436      0.0436
    170.00      0.0408      0.0408
    171.00      0.0385      0.0385
    172.00      0.0365      0.0365
    173.00      0.0349      0.0349
    174.00      0.0335      0.0335
    175.00      0.0323      0.0323
    176.00      0.0312      0.0312
    177.00      0.0304      0.0304
    178.00      0.0299      0.0299
    179.00      0.0295      0.0295
    180.00      0.0293      0.0293
                0.0000      1.0000
   -180.00      0.0000      0.0000
   -179.00      0.0400      0.0400
   -178.00      0.0800      0.0800
   -177.00      0.1200      0.1200
   -176.00      0.1600      0.1600
   -175.00      0.2000      0.2000
   -174.00      0.2400      0.2400
   -173.00      0.2842      0.2842
   -172.00      0.3283      0.3283
   -171.00      0.3600      0.3600
   -170.00      0.3801      0.3801
   -169.00      0.3956      0.3956
   -168.00      0.4036      0.4036
   -167.00      0.4060      0.4060
   -166.00      0.4075      0.4075
   -165.00      0.4090      0.4090
   -164.00      0.4107      0.4107
   -163.00      0.4123      0.4123
   -162.00      0.4144      0.4144
   -161.00      0.4172      0.4172
   -160.00      0.4209      0.4209
   -159.00      0.4254      0.4254
   -158.00      0.4317      0.4317
   -157.00      0.4396      0.4396
   -156.00      0.4476      0.4476
   -155.00      0.4551      0.4551
   -154.00      0.4627      0.4627
   -153.00      0.4698      0.4698
   -152.00      0.4779      0.4779
   -151.00      0.4856      0.4856
   -150.00      0.4891      0.4891
   -149.00      0.4873      0.4873
   -148.00      0.4833      0.4833
   -147.00      0.4790      0.4790
   -146.00      0.4749      0.4749
   -145.00      0.4704      0.4704
   -144.00      0.4658      0.4658
   -143.00      0.4614      0.4614
   -142.00      0.4569      0.4569
   -141.00      0.4529      0.4529
   -140.00      0.4495      0.4495
   -139.00      0.4464      0.4464
   -138.00      0.4437      0.4437
   -137.00      0.4413      0.4413
   -136.00      0.4391      0.4391
   -135.00      0.4369      0.4369
   -134.00      0.4345      0.4345
   -133.00      0.4321      0.4321
   -132.00      0.4302      0.4302
   -131.00      0.4289      0.4289
   -130.00      0.4278      0.4278
   -129.00      0.4270      0.4270
   -128.00      0.4263      0.4263
   -127.00      0.4258      0.4258
   -126.00      0.4255      0.4255
   -125.00      0.4255      0.4255
   -124.00      0.4254      0.4254
   -123.00      0.4254      0.4254
   -122.00      0.4254      0.4254
   -121.00      0.4255      0.4255
   -120.00      0.4256      0.4256
   -119.00      0.4258      0.4258
   -118.00      0.4261      0.4261
   -117.00      0.4264      0.4264
   -116.00      0.4268      0.4268
   -115.00      0.4272      0.4272
   -114.00      0.4276      0.4276
   -113.00      0.4280      0.4280
   -112.00      0.4285      0.4285
   -111.00      0.4287      0.4287
   -110.00      0.4286      0.4286
   -109.00      0.4285      0.4285
   -108.00      0.4283      0.4283
   -107.00      0.4281      0.4281
   -106.00      0.4279      0.4279
   -105.00      0.4276      0.4276
   -104.00      0.4273      0.4273
   -103.00      0.4270      0.4270
   -102.00      0.4265      0.4265
   -101.00      0.4259      0.4259
   -100.00      0.4251      0.4251
    -99.00      0.4241      0.4241
    -98.00      0.4229      0.4229
    -97.00      0.4215      0.4215
    -96.00      0.4201      0.4201
    -95.00      0.4186      0.4186
    -94.00      0.4170      0.4170
    -93.00      0.4155      0.4155
    -92.00      0.4141      0.4141
    -91.00      0.4127      0.4127
    -90.00      0.4109      0.4109
    -89.00      0.4083      0.4083
    -88.00      0.4048      0.4048
    -87.00      0.4014      0.4014
    -86.00      0.3982      0.3982
    -85.00      0.3950      0.3950
    -84.00      0.3918      0.3918
    -83.00      0.3885      0.3885
    -82.00      0.3853      0.3853
    -81.00      0.3818      0.3818
    -80.00      0.3782      0.3782
    -79.00      0.3745      0.3745
    -78.00      0.3706      0.3706
    -77.00      0.3666      0.3666
    -76.00      0.3625      0.3625
    -75.00      0.3584      0.3584