IEA-15-240-RWT_AeroDyn15_Polar_09; 2 361 2 361 2 361
                0.0000      1.0000
   -180.00      0.0000      0.0000
   -179.00      0.0389      0.0389
   -178.00      0.0778      0.0778
   -177.00      0.1169      0.1169
   -176.00      0.1561      0.1561
   -175.00      0.1954      0.1954
   -174.00      0.2347      0.2347
   -173.00      0.2739      0.2739
   -172.00      0.3132      0.3132
   -171.00      0.3524      0.3524
   -170.00      0.3916      0.3916
   -169.00      0.4308      0.4308
   -168.00      0.4700      0.4700
   -167.00      0.5092      0.5092
   -166.00      0.5483      0.5483
   -165.00      0.5875      0.5875
   -164.00      0.6274      0.6274
   -163.00      0.6674      0.6674
   -162.00      0.7049      0.7049
   -161.00      0.7407      0.7407
   -160.00      0.7743      0.7743
   -159.00      0.8022      0.8022
   -158.00      0.8232      0.8232
   -157.00      0.8409      0.8409
   -156.00      0.8584      0.8584
   -155.00      0.8768      0.8768
   -154.00      0.8950      0.8950
   -153.00      0.9127      0.9127
   -152.00      0.9331      0.9331
   -151.00      0.9529      0.9529
   -150.00      0.9619      0.9619
   -149.00      0.9613      0.9613
   -148.00      0.9598      0.9598
   -147.00      0.9575      0.9575
   -146.00      0.9450      0.9450
   -145.00      0.9210      0.9210
   -144.00      0.8975      0.8975
   -143.00      0.8786      0.8786
   -142.00      0.8601      0.8601
   -141.00      0.8421      0.8421
   -140.00      0.8248      0.8248
   -139.00      0.8079      0.8079
   -138.00      0.7913      0.7913
   -137.00      0.7750      0.7750
   -136.00      0.7591      0.7591
   -135.00      0.7432      0.7432
   -134.00      0.7274      0.7274
   -133.00      0.7116      0.7116
   -132.00      0.6959      0.6959
   -131.00      0.6802      0.6802
   -130.00      0.6644      0.6644
   -129.00      0.6487      0.6487
   -128.00      0.6329      0.6329
   -127.00      0.6171      0.6171
   -126.00      0.6012      0.6012
   -125.00      0.5854      0.5854
   -124.00      0.5695      0.5695
   -123.00      0.5535      0.5535
   -122.00      0.5375      0.5375
   -121.00      0.5214      0.5214
   -120.00      0.5051      0.5051
   -119.00      0.4886      0.4886
   -118.00      0.4719      0.4719
   -117.00      0.4551      0.4551
   -116.00      0.4384      0.4384
   -115.00      0.4215      0.4215
   -114.00      0.4047      0.4047
   -113.00      0.3878      0.3878
   -112.00      0.3708      0.3708
   -111.00      0.3538      0.3538
   -110.00      0.3366      0.3366
   -109.00      0.3194      0.3194
   -108.00      0.3022      0.3022
   -107.00      0.2849      0.2849
   -106.00      0.2676      0.2676
   -105.00      0.2503      0.2503
   -104.00      0.2330      0.2330
   -103.00      0.2157      0.2157
   -102.00      0.1984      0.1984
   -101.00      0.1813      0.1813
   -100.00      0.1642      0.1642
    -99.00      0.1473      0.1473
    -98.00      0.1305      0.1305
    -97.00      0.1139      0.1139
    -96.00      0.0974      0.0974
    -95.00      0.0809      0.0809
    -94.00      0.0645      0.0645
    -93.00      0.0482      0.0482
    -92.00      0.0321      0.0321
    -91.00      0.0160      0.0160
    -90.00     -0.0000     -0.0000
    -89.00     -0.0160     -0.0160
    -88.00     -0.0321     -0.0321
    -87.00     -0.0482     -0.0482
    -86.00     -0.0645     -0.0645
    -85.00     -0.0809     -0.0809
    -84.00     -0.0974     -0.0974
    -83.00     -0.1139     -0.1139
    -82.00     -0.1305     -0.1305
    -81.00     -0.1473     -0.1473
    -80.00     -0.1642     -0.1642
    -79.00     -0.1813     -0.1813
    -78.00     -0.1984     -0.1984
    -77.00     -0.2157     -0.2157
    -76.00     -0.2330     -0.2330
    -75.00     -0.2503     -0.2503
    -74.00     -0.2676     -0.2676
    -73.00     -0.2849     -0.2849
    -72.00     -0.3021     -0.3021
    -71.00     -0.3194     -0.3194
    -70.00     -0.3366     -0.3366
    -69.00     -0.3538     -0.3538
    -68.00     -0.3708     -0.3708
    -67.00     -0.3878     -0.3878
    -66.00     -0.4047     -0.4047
    -65.00     -0.4215     -0.4215
    -64.00     -0.4383     -0.4383
    -63.00     -0.4551     -0.4551
    -62.00     -0.4718     -0.4718
    -61.00     -0.4886     -0.4886
    -60.00     -0.5051     -0.5051
    -59.00     -0.5214     -0.5214
    -58.00     -0.5375     -0.5375
    -57.00     -0.5535     -0.5535
    -56.00     -0.5695     -0.5695
    -55.00     -0.5854     -0.5854
    -54.00     -0.6012     -0.6012
    -53.00     -0.6171     -0.6171
    -52.00     -0.6329     -0.6329
    -51.00     -0.6487     -0.6487
    -50.00     -0.6644     -0.6644
    -49.00     -0.6802     -0.6802
    -48.00     -0.6959     -0.6959
    -47.00     -0.7107     -0.7107
    -46.00     -0.7254     -0.7254
    -45.00     -0.7432     -0.7432
    -44.00     -0.7680     -0.7680
    -43.00     -0.7982     -0.7982
    -42.00     -0.8288     -0.8288
    -41.00     -0.8579     -0.8579
    -40.00     -0.8873     -0.8873
    -39.00     -0.9171     -0.9171
    -38.00     -0.9476     -0.9476
    -37.00     -0.9786     -0.9786
    -36.00     -1.0100     -1.0100
    -35.00     -1.0421     -1.0421
    -34.00     -1.0748     -1.0748
    -33.00     -1.1075     -1.1075
    -32.00     -1.1419     -1.1419
    -31.00     -1.1765     -1.1765
    -30.00     -1.2060     -1.2060
    -29.00     -1.2287     -1.2287
    -28.00     -1.2515     -1.2515
    -27.00     -1.2602     -1.2602
    -26.00     -1.2681     -1.2681
    -25.00     -1.2754     -1.2754
    -24.00     -1.2738     -1.2738
    -23.00     -1.2701     -1.2701
    -22.00     -1.2668     -1.2668
    -21.00     -1.2624     -1.2624
    -20.00     -1.2562     -1.2562
    -19.00     -1.2327     -1.2327
    -18.00     -1.2070     -1.2070
    -17.00     -1.1601     -1.1601
    -16.00     -1.1080     -1.1080
    -15.00     -1.0610     -1.0610
    -14.00     -1.0084     -1.0084
    -13.00     -0.9598     -0.9598
    -12.00     -0.9059     -0.9059
    -11.00     -0.8530     -0.8530
    -10.00     -0.8070     -0.8070
     -9.00     -0.7126     -0.7126
     -8.00     -0.6047     -0.6047
     -7.00     -0.4781     -0.4781
     -6.00     -0.3470     -0.3470
     -5.00     -0.2131     -0.2131
     -4.00     -0.0794     -0.0794
     -3.00      0.0551      0.0551
     -2.00      0.1832      0.1832
     -1.00      0.3133      0.3133
      0.00      0.4487      0.4487
      1.00      0.5850      0.5850
      2.00      0.7198      0.7198
      3.00      0.8526      0.8526
      4.00      0.9836      0.9836
      5.00      1.1123      1.1123
      6.00      1.2384      1.2384
      7.00      1.3620      1.3620
      8.00      1.4808      1.4808
      9.00      1.5947      1.5947
     10.00      1.6989      1.6989
     11.00      1.7891      1.7891
     12.00      1.8451      1.8451
     13.00      1.8930      1.8930
     14.00      1.9315      1.9315
     15.00      1.9756      1.9756
     16.00      2.0075      2.0075
     17.00      2.0166      2.0166
     18.00      1.9846      1.9846
     19.00      1.9349      1.9349
     20.00      1.8868      1.8868
     21.00      1.8506      1.8506
     22.00      1.8227      1.8227
     23.00      1.8017      1.8017
     24.00      1.7820      1.7820
     25.00      1.7636      1.7636
     26.00      1.7289      1.7289
     27.00      1.6931      1.6931
     28.00      1.6570      1.6570
     29.00      1.6281      1.6281
     30.00      1.6042      1.6042
     31.00      1.5765      1.5765
     32.00      1.5467      1.5467
     33.00      1.5140      1.5140
     34.00      1.4757      1.4757
     35.00      1.4332      1.4332
     36.00      1.3915      1.3915
     37.00      1.3521      1.3521
     38.00      1.3134      1.3134
     39.00      1.2755      1.2755
     40.00      1.2385      1.2385
     41.00      1.2023      1.2023
     42.00      1.1664      1.1664
     43.00      1.1292      1.1292
     44.00      1.0924      1.0924
     45.00      1.0608      1.0608
     46.00      1.0362      1.0362
     47.00      1.0150      1.0150
     48.00      0.9938      0.9938
     49.00      0.9714      0.9714
     50.00      0.9491      0.9491
     51.00      0.9267      0.9267
     52.00      0.9041      0.9041
     53.00      0.8816      0.8816
     54.00      0.8589      0.8589
     55.00      0.8363      0.8363
     56.00      0.8136      0.8136
     57.00      0.7908      0.7908
     58.00      0.7679      0.7679
     59.00      0.7449      0.7449
     60.00      0.7216      0.7216
     61.00      0.6980      0.6980
     62.00      0.6741      0.6741
     63.00      0.6502      0.6502
     64.00      0.6262      0.6262
     65.00      0.6022      0.6022
     66.00      0.5781      0.5781
     67.00      0.5540      0.5540
     68.00      0.5297      0.5297
     69.00      0.5054      0.5054
     70.00      0.4809      0.4809
     71.00      0.4563      0.4563
     72.00      0.4317      0.4317
     73.00      0.4070      0.4070
     74.00      0.3823      0.3823
     75.00      0.3576      0.3576
     76.00      0.3328      0.3328
     77.00      0.3081      0.3081
     78.00      0.2835      0.2835
     79.00      0.2590      0.2590
     80.00      0.2346      0.2346
     81.00      0.2104      0.2104
     82.00      0.1864      0.1864
     83.00      0.1627      0.1627
     84.00      0.1391      0.1391
     85.00      0.1156      0.1156
     86.00      0.0922      0.0922
     87.00      0.0689      0.0689
     88.00      0.0449      0.0449
     89.00      0.0211      0.0211
     90.00      0.0000      0.0000
     91.00     -0.0173     -0.0173
     92.00     -0.0327     -0.0327
     93.00     -0.0482     -0.0482
     94.00     -0.0645     -0.0645
     95.00     -0.0809     -0.0809
     96.00     -0.0974     -0.0974
     97.00     -0.1139     -0.1139
     98.00     -0.1305     -0.1305
     99.00     -0.1473     -0.1473
    100.00     -0.1642     -0.1642
    101.00     -0.1813     -0.1813
    102.00     -0.1984     -0.1984
    103.00     -0.2157     -0.2157
    104.00     -0.2330     -0.2330
    105.00     -0.2503     -0.2503
    106.00     -0.2676     -0.2676
    107.00     -0.2849     -0.2849
    108.00     -0.3022     -0.3022
    109.00     -0.3194     -0.3194
    110.00     -0.3366     -0.3366
    111.00     -0.3538     -0.3538
    112.00     -0.3708     -0.3708
    113.00     -0.3878     -0.3878
    114.00     -0.4047     -0.4047
    115.00     -0.4215     -0.4215
    116.00     -0.4383     -0.4383
    117.00     -0.4551     -0.4551
    118.00     -0.4718     -0.4718
    119.00     -0.4885     -0.4885
    120.00     -0.5051     -0.5051
    121.00     -0.5214     -0.5214
    122.00     -0.5375     -0.5375
    123.00     -0.5535     -0.5535
    124.00     -0.5695     -0.5695
    125.00     -0.5854     -0.5854
    126.00     -0.6012     -0.6012
    127.00     -0.6171     -0.6171
    128.00     -0.6329     -0.6329
    129.00     -0.6487     -0.6487
    130.00     -0.6644     -0.6644
    131.00     -0.6802     -0.6802
    132.00     -0.6959     -0.6959
    133.00     -0.7116     -0.7116
    134.00     -0.7274     -0.7274
    135.00     -0.7432     -0.7432
    136.00     -0.7591     -0.7591
    137.00     -0.7750     -0.7750
    138.00     -0.7913     -0.7913
    139.00     -0.8079     -0.8079
    140.00     -0.8248     -0.8248
    141.00     -0.8421     -0.8421
    142.00     -0.8601     -0.8601
    143.00     -0.8786     -0.8786
    144.00     -0.8975     -0.8975
    145.00     -0.9210     -0.9210
    146.00     -0.9450     -0.9450
    147.00     -0.9575     -0.9575
    148.00     -0.9598     -0.9598
    149.00     -0.9613     -0.9613
    150.00     -0.9619     -0.9619
    151.00     -0.9529     -0.9529
    152.00     -0.9331     -0.9331
    153.00     -0.9126     -0.9126
    154.00     -0.8950     -0.8950
    155.00     -0.8768     -0.8768
    156.00     -0.8584     -0.8584
    157.00     -0.8409     -0.8409
    158.00     -0.8232     -0.8232
    159.00     -0.8022     -0.8022
    160.00     -0.7743     -0.7743
    161.00     -0.7407     -0.7407
    162.00     -0.7049     -0.7049
    163.00     -0.6674     -0.6674
    164.00     -0.6274     -0.6274
    165.00     -0.5874     -0.5874
    166.00     -0.5483     -0.5483
    167.00     -0.5091     -0.5091
    168.00     -0.4699     -0.4699
    169.00     -0.4308     -0.4308
    170.00     -0.3916     -0.3916
    171.00     -0.3524     -0.3524
    172.00     -0.3131     -0.3131
    173.00     -0.2739     -0.2739
    174.00     -0.2346     -0.2346
    175.00     -0.1953     -0.1953
    176.00     -0.1561     -0.1561
    177.00     -0.1169     -0.1169
    178.00     -0.0778     -0.0778
    179.00     -0.0389     -0.0389
    180.00      0.0000      0.0000
                0.0000      1.0000
   -180.00      0.0595      0.0595
   -179.00      0.0596      0.0596
   -178.00      0.0598      0.0598
   -177.00      0.0601      0.0601
   -176.00      0.0605      0.0605
   -175.00      0.0611      0.0611
   -174.00      0.0617      0.0617
   -173.00      0.0624      0.0624
   -172.00      0.0633      0.0633
   -171.00      0.0644      0.0644
   -170.00      0.0662      0.0662
   -169.00      0.0689      0.0689
   -168.00      0.0722      0.0722
   -167.00      0.0767      0.0767
   -166.00      0.0824      0.0824
   -165.00      0.0890      0.0890
   -164.00      0.0967      0.0967
   -163.00      0.1057      0.1057
   -162.00      0.1154      0.1154
   -161.00      0.1255      0.1255
   -160.00      0.1364      0.1364
   -159.00      0.1487      0.1487
   -158.00      0.1636      0.1636
   -157.00      0.1807      0.1807
   -156.00      0.1979      0.1979
   -155.00      0.2147      0.2147
   -154.00      0.2318      0.2318
   -153.00      0.2491      0.2491
   -152.00      0.2664      0.2664
   -151.00      0.2839      0.2839
   -150.00      0.3022      0.3022
   -149.00      0.3220      0.3220
   -148.00      0.3428      0.3428
   -147.00      0.3639      0.3639
   -146.00      0.3852      0.3852
   -145.00      0.4069      0.4069
   -144.00      0.4286      0.4286
   -143.00      0.4502      0.4502
   -142.00      0.4718      0.4718
   -141.00      0.4935      0.4935
   -140.00      0.5156      0.5156
   -139.00      0.5378      0.5378
   -138.00      0.5602      0.5602
   -137.00      0.5826      0.5826
   -136.00      0.6052      0.6052
   -135.00      0.6277      0.6277
   -134.00      0.6503      0.6503
   -133.00      0.6729      0.6729
   -132.00      0.6953      0.6953
   -131.00      0.7177      0.7177
   -130.00      0.7399      0.7399
   -129.00      0.7619      0.7619
   -128.00      0.7837      0.7837
   -127.00      0.8053      0.8053
   -126.00      0.8268      0.8268
   -125.00      0.8482      0.8482
   -124.00      0.8696      0.8696
   -123.00      0.8906      0.8906
   -122.00      0.9116      0.9116
   -121.00      0.9323      0.9323
   -120.00      0.9522      0.9522
   -119.00      0.9712      0.9712
   -118.00      0.9895      0.9895
   -117.00      1.0076      1.0076
   -116.00      1.0256      1.0256
   -115.00      1.0434      1.0434
   -114.00      1.0608      1.0608
   -113.00      1.0782      1.0782
   -112.00      1.0952      1.0952
   -111.00      1.1113      1.1113
   -110.00      1.1261      1.1261
   -109.00      1.1400      1.1400
   -108.00      1.1534      1.1534
   -107.00      1.1662      1.1662
   -106.00      1.1785      1.1785
   -105.00      1.1904      1.1904
   -104.00      1.2021      1.2021
   -103.00      1.2136      1.2136
   -102.00      1.2241      1.2241
   -101.00      1.2338      1.2338
   -100.00      1.2428      1.2428
    -99.00      1.2505      1.2505
    -98.00      1.2569      1.2569
    -97.00      1.2624      1.2624
    -96.00      1.2674      1.2674
    -95.00      1.2722      1.2722
    -94.00      1.2767      1.2767
    -93.00      1.2806      1.2806
    -92.00      1.2846      1.2846
    -91.00      1.2883      1.2883
    -90.00      1.2899      1.2899
    -89.00      1.2883      1.2883
    -88.00      1.2846      1.2846
    -87.00      1.2806      1.2806
    -86.00      1.2767      1.2767
    -85.00      1.2722      1.2722
    -84.00      1.2674      1.2674
    -83.00      1.2624      1.2624
    -82.00      1.2569      1.2569
    -81.00      1.2505      1.2505
    -80.00      1.2428      1.2428
    -79.00      1.2338      1.2338
    -78.00      1.2241      1.2241
    -77.00      1.2136      1.2136
    -76.00      1.2021      1.2021
    -75.00      1.1904      1.1904
    -74.00      1.1785      1.1785
    -73.00      1.1662      1.1662
    -72.00      1.1534      1.1534
    -71.00      1.1400      1.1400
    -70.00      1.1261      1.1261
    -69.00      1.1113      1.1113
    -68.00      1.0952      1.0952
    -67.00      1.0782      1.0782
    -66.00      1.0608      1.0608
    -65.00      1.0434      1.0434
    -64.00      1.0256      1.0256
    -63.00      1.0076      1.0076
    -62.00      0.9895      0.9895
    -61.00      0.9712      0.9712
    -60.00      0.9522      0.9522
    -59.00      0.9323      0.9323
    -58.00      0.9116      0.9116
    -57.00      0.8906      0.8906
    -56.00      0.8696      0.8696
    -55.00      0.8482      0.8482
    -54.00      0.8268      0.8268
    -53.00      0.8053      0.8053
    -52.00      0.7837      0.7837
    -51.00      0.7619      0.7619
    -50.00      0.7399      0.7399
    -49.00      0.7177      0.7177
    -48.00      0.6953      0.6953
    -47.00      0.6729      0.6729
    -46.00      0.6503      0.6503
    -45.00      0.6277      0.6277
    -44.00      0.6052      0.6052
    -43.00      0.5826      0.5826
    -42.00      0.5602      0.5602
    -41.00      0.5378      0.5378
    -40.00      0.5156      0.5156
    -39.00      0.4935      0.4935
    -38.00      0.4718      0.4718
    -37.00      0.4502      0.4502
    -36.00      0.4287      0.4287
    -35.00      0.4075      0.4075
    -34.00      0.3864      0.3864
    -33.00      0.3639      0.3639
    -32.00      0.3390      0.3390
    -31.00      0.3125      0.3125
    -30.00      0.2855      0.2855
    -29.00      0.2586      0.2586
    -28.00      0.2339      0.2339
    -27.00      0.2187      0.2187
    -26.00      0.2060      0.2060
    -25.00      0.1932      0.1932
    -24.00      0.1803      0.1803
    -23.00      0.1673      0.1673
    -22.00      0.1542      0.1542
    -21.00      0.1413      0.1413
    -20.00      0.1288      0.1288
    -19.00      0.1210      0.1210
    -18.00      0.1133      0.1133
    -17.00      0.1056      0.1056
    -16.00      0.0986      0.0986
    -15.00      0.0915      0.0915
    -14.00      0.0850      0.0850
    -13.00      0.0787      0.0787
    -12.00      0.0729      0.0729
    -11.00      0.0674      0.0674
    -10.00      0.0617      0.0617
     -9.00      0.0575      0.0575
     -8.00      0.0537      0.0537
     -7.00      0.0512      0.0512
     -6.00      0.0490      0.0490
     -5.00      0.0474      0.0474
     -4.00      0.0460      0.0460
     -3.00      0.0454      0.0454
     -2.00      0.0448      0.0448
     -1.00      0.0446      0.0446
      0.00      0.0446      0.0446
      1.00      0.0446      0.0446
      2.00      0.0448      0.0448
      3.00      0.0451      0.0451
      4.00      0.0455      0.0455
      5.00      0.0460      0.0460
      6.00      0.0466      0.0466
      7.00      0.0474      0.0474
      8.00      0.0484      0.0484
      9.00      0.0497      0.0497
     10.00      0.0515      0.0515
     11.00      0.0546      0.0546
     12.00      0.0596      0.0596
     13.00      0.0664      0.0664
     14.00      0.0744      0.0744
     15.00      0.0821      0.0821
     16.00      0.0913      0.0913
     17.00      0.1039      0.1039
     18.00      0.1175      0.1175
     19.00      0.1325      0.1325
     20.00      0.1475      0.1475
     21.00      0.1624      0.1624
     22.00      0.1766      0.1766
     23.00      0.1901      0.1901
     24.00      0.2038      0.2038
     25.00      0.2198      0.2198
     26.00      0.2375      0.2375
     27.00      0.2552      0.2552
     28.00      0.2728      0.2728
     29.00      0.2905      0.2905
     30.00      0.3089      0.3089
     31.00      0.3283      0.3283
     32.00      0.3482      0.3482
     33.00      0.3684      0.3684
     34.00      0.3892      0.3892
     35.00      0.4104      0.4104
     36.00      0.4317      0.4317
     37.00      0.4529      0.4529
     38.00      0.4742      0.4742
     39.00      0.4958      0.4958
     40.00      0.5176      0.5176
     41.00      0.5397      0.5397
     42.00      0.5619      0.5619
     43.00      0.5841      0.5841
     44.00      0.6064      0.6064
     45.00      0.6288      0.6288
     46.00      0.6511      0.6511
     47.00      0.6735      0.6735
     48.00      0.6958      0.6958
     49.00      0.7179      0.7179
     50.00      0.7400      0.7400
     51.00      0.7619      0.7619
     52.00      0.7837      0.7837
     53.00      0.8053      0.8053
     54.00      0.8268      0.8268
     55.00      0.8482      0.8482
     56.00      0.8696      0.8696
     57.00      0.8906      0.8906
     58.00      0.9116      0.9116
     59.00      0.9323      0.9323
     60.00      0.9522      0.9522
     61.00      0.9712      0.9712
     62.00      0.9895      0.9895
     63.00      1.0076      1.0076
     64.00      1.0256      1.0256
     65.00      1.0434      1.0434
     66.00      1.0608      1.0608
     67.00      1.0782      1.0782
     68.00      1.0952      1.0952
     69.00      1.1113      1.1113
     70.00      1.1261      1.1261
     71.00      1.1400      1.1400
     72.00      1.1534      1.1534
     73.00      1.1662      1.1662
     74.00      1.1785      1.1785
     75.00      1.1904      1.1904
     76.00      1.2021      1.2021
     77.00      1.2136      1.2136
     78.00      1.2241      1.2241
     79.00      1.2338      1.2338
     80.00      1.2428      1.2428
     81.00      1.2505      1.2505
     82.00      1.2569      1.2569
     83.00      1.2624      1.2624
     84.00      1.2674      1.2674
     85.00      1.2722      1.2722
     86.00      1.2767      1.2767
     87.00      1.2806      1.2806
     88.00      1.2846      1.2846
     89.00      1.2883      1.2883
     90.00      1.2899      1.2899
     91.00      1.2883      1.2883
     92.00      1.2846      1.2846
     93.00      1.2806      1.2806
     94.00      1.2767      1.2767
     95.00      1.2722      1.2722
     96.00      1.2674      1.2674
     97.00      1.2624      1.2624
     98.00      1.2569      1.2569
     99.00      1.2505      1.2505
    100.00      1.2428      1.2428
    101.00      1.2338      1.2338
    102.00      1.2241      1.2241
    103.00      1.2136      1.2136
    104.00      1.2021      1.2021
    105.00      1.1904      1.1904
    106.00      1.1785      1.1785
    107.00      1.1662      1.1662
    108.00      1.1534      1.1534
    109.00      1.1400      1.1400
    110.00      1.1261      1.1261
    111.00      1.1113      1.1113
    112.00      1.0952      1.0952
    113.00      1.0782      1.0782
    114.00      1.0608      1.0608
    115.00      1.0434      1.0434
    116.00      1.0256      1.0256
    117.00      1.0076      1.0076
    118.00      0.9895      0.9895
    119.00      0.9712      0.9712
    120.00      0.9522      0.9522
    121.00      0.9323      0.9323
    122.00      0.9116      0.9116
    123.00      0.8906      0.8906
    124.00      0.8696      0.8696
    125.00      0.8482      0.8482
    126.00      0.8268      0.8268
    127.00      0.8053      0.8053
    128.00      0.7837      0.7837
    129.00      0.7619      0.7619
    130.00      0.7399      0.7399
    131.00      0.7177      0.7177
    132.00      0.6953      0.6953
    133.00      0.6729      0.6729
    134.00      0.6503      0.6503
    135.00      0.6277      0.6277
    136.00      0.6052      0.6052
    137.00      0.5826      0.5826
    138.00      0.5602      0.5602
    139.00      0.5378      0.5378
    140.00      0.5156      0.5156
    141.00      0.4935      0.4935
    142.00      0.4718      0.4718
    143.00      0.4502      0.4502
    144.00      0.4286      0.4286
    145.00      0.4069      0.4069
    146.00      0.3852      0.3852
    147.00      0.3639      0.3639
    148.00      0.3428      0.3428
    149.00      0.3220      0.3220
    150.00      0.3022      0.3022
    151.00      0.2839      0.2839
    152.00      0.2664      0.2664
    153.00      0.2491      0.2491
    154.00      0.2318      0.2318
    155.00      0.2147      0.2147
    156.00      0.1979      0.1979
    157.00      0.1807      0.1807
    158.00      0.1636      0.1636
    159.00      0.1487      0.1487
    160.00      0.1364      0.1364
    161.00      0.1255      0.1255
    162.00      0.1154      0.1154
    163.00      0.1057      0.1057
    164.00      0.0967      0.0967
    165.00      0.0890      0.0890
    166.00      0.0824      0.0824
    167.00      0.0767      0.0767
    168.00      0.0722      0.0722
    169.00      0.0689      0.0689
    170.00      0.0662      0.0662
    171.00      0.0644      0.0644
    172.00      0.0633      0.0633
    173.00      0.0624      0.0624
    174.00      0.0617      0.0617
    175.00      0.0611      0.0611
    176.00      0.0605      0.0605
    177.00      0.0601      0.0601
    178.00      0.0598      0.0598
    179.00      0.0596      0.0596
    180.00      0.0595      0.0595
                0.0000      1.0000
   -180.00      0.0000      0.0000
   -179.00      0.0361      0.0361
   -178.00      0.0724      0.0724
   -177.00      0.1086      0.1086
   -176.00      0.1450      0.1450
   -175.00      0.1814      0.1814
   -174.00      0.2178      0.2178
   -173.00      0.2582      0.2582
   -172.00      0.2987      0.2987
   -171.00      0.3269      0.3269
   -170.00      0.3441      0.3441
   -169.00      0.3574      0.3574
   -168.00      0.3626      0.3626
   -167.00      0.3624      0.3624
   -166.00      0.3620      0.3620
   -165.00      0.3615      0.3615
   -164.00      0.3610      0.3610
   -163.00      0.3605      0.3605
   -162.00      0.3603      0.3603
   -161.00      0.3605      0.3605
   -160.00      0.3611      0.3611
   -159.00      0.3620      0.3620
   -158.00      0.3639      0.3639
   -157.00      0.3669      0.3669
   -156.00      0.3698      0.3698
   -155.00      0.3724      0.3724
   -154.00      0.3750      0.3750
   -153.00      0.3774      0.3774
   -152.00      0.3799      0.3799
   -151.00      0.3823      0.3823
   -150.00      0.3833      0.3833
   -149.00      0.3805      0.3805
   -148.00      0.3742      0.3742
   -147.00      0.3678      0.3678
   -146.00      0.3621      0.3621
   -145.00      0.3562      0.3562
   -144.00      0.3503      0.3503
   -143.00      0.3440      0.3440
   -142.00      0.3377      0.3377
   -141.00      0.3325      0.3325
   -140.00      0.3284      0.3284
   -139.00      0.3249      0.3249
   -138.00      0.3220      0.3220
   -137.00      0.3197      0.3197
   -136.00      0.3177      0.3177
   -135.00      0.3157      0.3157
   -134.00      0.3135      0.3135
   -133.00      0.3112      0.3112
   -132.00      0.3094      0.3094
   -131.00      0.3080      0.3080
   -130.00      0.3067      0.3067
   -129.00      0.3062      0.3062
   -128.00      0.3062      0.3062
   -127.00      0.3063      0.3063
   -126.00      0.3063      0.3063
   -125.00      0.3065      0.3065
   -124.00      0.3068      0.3068
   -123.00      0.3071      0.3071
   -122.00      0.3074      0.3074
   -121.00      0.3078      0.3078
   -120.00      0.3082      0.3082
   -119.00      0.3089      0.3089
   -118.00      0.3098      0.3098
   -117.00      0.3107      0.3107
   -116.00      0.3116      0.3116
   -115.00      0.3125      0.3125
   -114.00      0.3134      0.3134
   -113.00      0.3144      0.3144
   -112.00      0.3153      0.3153
   -111.00      0.3161      0.3161
   -110.00      0.3168      0.3168
   -109.00      0.3173      0.3173
   -108.00      0.3178      0.3178
   -107.00      0.3183      0.3183
   -106.00      0.3187      0.3187
   -105.00      0.3192      0.3192
   -104.00      0.3197      0.3197
   -103.00      0.3201      0.3201
   -102.00      0.3203      0.3203
   -101.00      0.3203      0.3203
   -100.00      0.3203      0.3203
    -99.00      0.3203      0.3203
    -98.00      0.3200      0.3200
    -97.00      0.3192      0.3192
    -96.00      0.3183      0.3183
    -95.00      0.3176      0.3176
    -94.00      0.3169      0.3169
    -93.00      0.3161      0.3161
    -92.00      0.3155      0.3155
    -91.00      0.3149      0.3149
    -90.00      0.3139      0.3139
    -89.00      0.3119      0.3119
    -88.00      0.3089      0.3089
    -87.00      0.3058      0.3058
    -86.00      0.3031      0.3031
    -85.00      0.3004      0.3004
    -84.00      0.2977      0.2977
    -83.00      0.2950      0.2950
    -82.00      0.2923      0.2923
    -81.00      0.2894      0.2894
    -80.00      0.2863      0.2863
    -79.00      0.2830      0.2830
    -78.00      0.2796      0.2796
    -77.00      0.2760      0.2760
    -76.00      0.2724      0.2724
    -75.00      0.2687      0.2687