IEA-15-240-RWT_AeroDyn15_Polar_28; 2 361 2 361 2 361
                0.0000      1.0000
   -180.00      0.0000      0.0000
   -179.00      0.0266      0.0266
   -178.00      0.0532      0.0532
   -177.00      0.0799      0.0799
   -176.00      0.1065      0.1065
   -175.00      0.1331      0.1331
   -174.00      0.1597      0.1597
   -173.00      0.1863      0.1863
   -172.00      0.2130      0.2130
   -171.00      0.2396      0.2396
   -170.00      0.2662      0.2662
   -169.00      0.2928      0.2928
   -168.00      0.3194      0.3194
   -167.00      0.3461      0.3461
   -166.00      0.3727      0.3727
   -165.00      0.3993      0.3993
   -164.00      0.4259      0.4259
   -163.00      0.4525      0.4525
   -162.00      0.4792      0.4792
   -161.00      0.5058      0.5058
   -160.00      0.5324      0.5324
   -159.00      0.5590      0.5590
   -158.00      0.5856      0.5856
   -157.00      0.6123      0.6123
   -156.00      0.6389      0.6389
   -155.00      0.6655      0.6655
   -154.00      0.6921      0.6921
   -153.00      0.7187      0.7187
   -152.00      0.7472      0.7472
   -151.00      0.7757      0.7757
   -150.00      0.7986      0.7986
   -149.00      0.8176      0.8176
   -148.00      0.8337      0.8337
   -147.00      0.8405      0.8405
   -146.00      0.8342      0.8342
   -145.00      0.8202      0.8202
   -144.00      0.8066      0.8066
   -143.00      0.7959      0.7959
   -142.00      0.7854      0.7854
   -141.00      0.7749      0.7749
   -140.00      0.7644      0.7644
   -139.00      0.7539      0.7539
   -138.00      0.7433      0.7433
   -137.00      0.7327      0.7327
   -136.00      0.7221      0.7221
   -135.00      0.7112      0.7112
   -134.00      0.7001      0.7001
   -133.00      0.6888      0.6888
   -132.00      0.6772      0.6772
   -131.00      0.6653      0.6653
   -130.00      0.6531      0.6531
   -129.00      0.6408      0.6408
   -128.00      0.6285      0.6285
   -127.00      0.6161      0.6161
   -126.00      0.6034      0.6034
   -125.00      0.5904      0.5904
   -124.00      0.5772      0.5772
   -123.00      0.5637      0.5637
   -122.00      0.5496      0.5496
   -121.00      0.5352      0.5352
   -120.00      0.5205      0.5205
   -119.00      0.5056      0.5056
   -118.00      0.4904      0.4904
   -117.00      0.4750      0.4750
   -116.00      0.4593      0.4593
   -115.00      0.4435      0.4435
   -114.00      0.4274      0.4274
   -113.00      0.4110      0.4110
   -112.00      0.3945      0.3945
   -111.00      0.3776      0.3776
   -110.00      0.3605      0.3605
   -109.00      0.3431      0.3431
   -108.00      0.3256      0.3256
   -107.00      0.3079      0.3079
   -106.00      0.2902      0.2902
   -105.00      0.2723      0.2723
   -104.00      0.2544      0.2544
   -103.00      0.2363      0.2363
   -102.00      0.2181      0.2181
   -101.00      0.1999      0.1999
   -100.00      0.1815      0.1815
    -99.00      0.1632      0.1632
    -98.00      0.1449      0.1449
    -97.00      0.1265      0.1265
    -96.00      0.1083      0.1083
    -95.00      0.0900      0.0900
    -94.00      0.0719      0.0719
    -93.00      0.0538      0.0538
    -92.00      0.0358      0.0358
    -91.00      0.0179      0.0179
    -90.00     -0.0000     -0.0000
    -89.00     -0.0179     -0.0179
    -88.00     -0.0358     -0.0358
    -87.00     -0.0538     -0.0538
    -86.00     -0.0719     -0.0719
    -85.00     -0.0900     -0.0900
    -84.00     -0.1083     -0.1083
    -83.00     -0.1265     -0.1265
    -82.00     -0.1449     -0.1449
    -81.00     -0.1632     -0.1632
    -80.00     -0.1815     -0.1815
    -79.00     -0.1999     -0.1999
    -78.00     -0.2181     -0.2181
    -77.00     -0.2363     -0.2363
    -76.00     -0.2544     -0.2544
    -75.00     -0.2723     -0.2723
    -74.00     -0.2902     -0.2902
    -73.00     -0.3079     -0.3079
    -72.00     -0.3256     -0.3256
    -71.00     -0.3431     -0.3431
    -70.00     -0.3605     -0.3605
    -69.00     -0.3776     -0.3776
    -68.00     -0.3945     -0.3945
    -67.00     -0.4110     -0.4110
    -66.00     -0.4274     -0.4274
    -65.00     -0.4435     -0.4435
    -64.00     -0.4593     -0.4593
    -63.00     -0.4750     -0.4750
    -62.00     -0.4904     -0.4904
    -61.00     -0.5056     -0.5056
    -60.00     -0.5205     -0.5205
    -59.00     -0.5352     -0.5352
    -58.00     -0.5496     -0.5496
    -57.00     -0.5637     -0.5637
    -56.00     -0.5772     -0.5772
    -55.00     -0.5904     -0.5904
    -54.00     -0.6034     -0.6034
    -53.00     -0.6161     -0.6161
    -52.00     -0.6285     -0.6285
    -51.00     -0.6408     -0.6408
    -50.00     -0.6531     -0.6531
    -49.00     -0.6653     -0.6653
    -48.00     -0.6772     -0.6772
    -47.00     -0.6908     -0.6908
    -46.00     -0.7042     -0.7042
    -45.00     -0.7112     -0.7112
    -44.00     -0.7125     -0.7125
    -43.00     -0.7132     -0.7132
    -42.00     -0.7142     -0.7142
    -41.00     -0.7162     -0.7162
    -40.00     -0.7191     -0.7191
    -39.00     -0.7224     -0.7224
    -38.00     -0.7263     -0.7263
    -37.00     -0.7309     -0.7309
    -36.00     -0.7362     -0.7362
    -35.00     -0.7416     -0.7416
    -34.00     -0.7480     -0.7480
    -33.00     -0.7580     -0.7580
    -32.00     -0.7855     -0.7855
    -31.00     -0.8337     -0.8337
    -30.00     -0.8881     -0.8881
    -29.00     -0.9494     -0.9494
    -28.00     -1.0047     -1.0047
    -27.00     -1.0104     -1.0104
    -26.00     -1.0123     -1.0123
    -25.00     -1.0145     -1.0145
    -24.00     -1.0172     -1.0172
    -23.00     -1.0210     -1.0210
    -22.00     -1.0249     -1.0249
    -21.00     -1.0288     -1.0288
    -20.00     -1.0318     -1.0318
    -19.00     -1.0302     -1.0302
    -18.00     -1.0274     -1.0274
    -17.00     -1.0211     -1.0211
    -16.00     -1.0151     -1.0151
    -15.00     -1.0379     -1.0379
    -14.00     -1.0540     -1.0540
    -13.00     -1.0614     -1.0614
    -12.00     -1.0617     -1.0617
    -11.00     -1.0001     -1.0001
    -10.00     -0.9301     -0.9301
     -9.00     -0.8104     -0.8104
     -8.00     -0.6917     -0.6917
     -7.00     -0.5598     -0.5598
     -6.00     -0.4262     -0.4262
     -5.00     -0.2911     -0.2911
     -4.00     -0.1560     -0.1560
     -3.00     -0.0233     -0.0233
     -2.00      0.1092      0.1092
     -1.00      0.2405      0.2405
      0.00      0.3710      0.3710
      1.00      0.4995      0.4995
      2.00      0.6272      0.6272
      3.00      0.7537      0.7537
      4.00      0.8791      0.8791
      5.00      1.0027      1.0027
      6.00      1.1239      1.1239
      7.00      1.2433      1.2433
      8.00      1.3595      1.3595
      9.00      1.4713      1.4713
     10.00      1.5788      1.5788
     11.00      1.6775      1.6775
     12.00      1.7667      1.7667
     13.00      1.8420      1.8420
     14.00      1.8934      1.8934
     15.00      1.8937      1.8937
     16.00      1.8685      1.8685
     17.00      1.7853      1.7853
     18.00      1.6987      1.6987
     19.00      1.6035      1.6035
     20.00      1.5125      1.5125
     21.00      1.4545      1.4545
     22.00      1.4013      1.4013
     23.00      1.3481      1.3481
     24.00      1.2960      1.2960
     25.00      1.2719      1.2719
     26.00      1.2536      1.2536
     27.00      1.2325      1.2325
     28.00      1.2144      1.2144
     29.00      1.1913      1.1913
     30.00      1.1673      1.1673
     31.00      1.1453      1.1453
     32.00      1.1249      1.1249
     33.00      1.1080      1.1080
     34.00      1.0949      1.0949
     35.00      1.0838      1.0838
     36.00      1.0739      1.0739
     37.00      1.0648      1.0648
     38.00      1.0566      1.0566
     39.00      1.0491      1.0491
     40.00      1.0421      1.0421
     41.00      1.0357      1.0357
     42.00      1.0300      1.0300
     43.00      1.0256      1.0256
     44.00      1.0216      1.0216
     45.00      1.0160      1.0160
     46.00      1.0039      1.0039
     47.00      0.9859      0.9859
     48.00      0.9674      0.9674
     49.00      0.9504      0.9504
     50.00      0.9330      0.9330
     51.00      0.9154      0.9154
     52.00      0.8979      0.8979
     53.00      0.8801      0.8801
     54.00      0.8620      0.8620
     55.00      0.8435      0.8435
     56.00      0.8246      0.8246
     57.00      0.8052      0.8052
     58.00      0.7852      0.7852
     59.00      0.7645      0.7645
     60.00      0.7435      0.7435
     61.00      0.7222      0.7222
     62.00      0.7005      0.7005
     63.00      0.6785      0.6785
     64.00      0.6562      0.6562
     65.00      0.6335      0.6335
     66.00      0.6106      0.6106
     67.00      0.5872      0.5872
     68.00      0.5635      0.5635
     69.00      0.5394      0.5394
     70.00      0.5150      0.5150
     71.00      0.4901      0.4901
     72.00      0.4651      0.4651
     73.00      0.4399      0.4399
     74.00      0.4146      0.4146
     75.00      0.3891      0.3891
     76.00      0.3634      0.3634
     77.00      0.3376      0.3376
     78.00      0.3116      0.3116
     79.00      0.2855      0.2855
     80.00      0.2593      0.2593
     81.00      0.2331      0.2331
     82.00      0.2069      0.2069
     83.00      0.1808      0.1808
     84.00      0.1547      0.1547
     85.00      0.1286      0.1286
     86.00      0.1027      0.1027
     87.00      0.0768      0.0768
     88.00      0.0502      0.0502
     89.00      0.0236      0.0236
     90.00      0.0000      0.0000
     91.00     -0.0193     -0.0193
     92.00     -0.0365     -0.0365
     93.00     -0.0538     -0.0538
     94.00     -0.0719     -0.0719
     95.00     -0.0900     -0.0900
     96.00     -0.1083     -0.1083
     97.00     -0.1265     -0.1265
     98.00     -0.1449     -0.1449
     99.00     -0.1632     -0.1632
    100.00     -0.1815     -0.1815
    101.00     -0.1999     -0.1999
    102.00     -0.2181     -0.2181
    103.00     -0.2363     -0.2363
    104.00     -0.2544     -0.2544
    105.00     -0.2723     -0.2723
    106.00     -0.2902     -0.2902
    107.00     -0.3079     -0.3079
    108.00     -0.3256     -0.3256
    109.00     -0.3431     -0.3431
    110.00     -0.3605     -0.3605
    111.00     -0.3776     -0.3776
    112.00     -0.3945     -0.3945
    113.00     -0.4110     -0.4110
    114.00     -0.4274     -0.4274
    115.00     -0.4435     -0.4435
    116.00     -0.4593     -0.4593
    117.00     -0.4750     -0.4750
    118.00     -0.4904     -0.4904
    119.00     -0.5056     -0.5056
    120.00     -0.5205     -0.5205
    121.00     -0.5352     -0.5352
    122.00     -0.5496     -0.5496
    123.00     -0.5637     -0.5637
    124.00     -0.5772     -0.5772
    125.00     -0.5904     -0.5904
    126.00     -0.6034     -0.6034
    127.00     -0.6161     -0.6161
    128.00     -0.6285     -0.6285
    129.00     -0.6408     -0.6408
    130.00     -0.6531     -0.6531
    131.00     -0.6653     -0.6653
    132.00     -0.6772     -0.6772
    133.00     -0.6888     -0.6888
    134.00     -0.7001     -0.7001
    135.00     -0.7112     -0.7112
    136.00     -0.7221     -0.7221
    137.00     -0.7327     -0.7327
    138.00     -0.7433     -0.7433
    139.00     -0.7539     -0.7539
    140.00     -0.7644     -0.7644
    141.00     -0.7749     -0.7749
    142.00     -0.7854     -0.7854
    143.00     -0.7959     -0.7959
    144.00     -0.8066     -0.8066
    145.00     -0.8202     -0.8202
    146.00     -0.8342     -0.8342
    147.00     -0.8405     -0.8405
    148.00     -0.8337     -0.8337
    149.00     -0.8176     -0.8176
    150.00     -0.7986     -0.7986
    151.00     -0.7757     -0.7757
    152.00     -0.7472     -0.7472
    153.00     -0.7187     -0.7187
    154.00     -0.6921     -0.6921
    155.00     -0.6655     -0.6655
    156.00     -0.6389     -0.6389
    157.00     -0.6123     -0.6123
    158.00     -0.5856     -0.5856
    159.00     -0.5590     -0.5590
    160.00     -0.5324     -0.5324
    161.00     -0.5058     -0.5058
    162.00     -0.4792     -0.4792
    163.00     -0.4525     -0.4525
    164.00     -0.4259     -0.4259
    165.00     -0.3993     -0.3993
    166.00     -0.3727     -0.3727
    167.00     -0.3461     -0.3461
    168.00     -0.3194     -0.3194
    169.00     -0.2928     -0.2928
    170.00     -0.2662     -0.2662
    171.00     -0.2396     -0.2396
    172.00     -0.2130     -0.2130
    173.00     -0.1863     -0.1863
    174.00     -0.1597     -0.1597
    175.00     -0.1331     -0.1331
    176.00     -0.1065     -0.1065
    177.00     -0.0799     -0.0799
    178.00     -0.0532     -0.0532
    179.00     -0.0266     -0.0266
    180.00      0.0000      0.0000
                0.0000      1.0000
   -180.00      0.0137      0.0137
   -179.00      0.0139      0.0139
   -178.00      0.0144      0.0144
   -177.00      0.0150      0.0150
   -176.00      0.0158      0.0158
   -175.00      0.0171      0.0171
   -174.00      0.0185      0.0185
   -173.00      0.0200      0.0200
   -172.00      0.0218      0.0218
   -171.00      0.0241      0.0241
   -170.00      0.0273      0.0273
   -169.00      0.0316      0.0316
   -168.00      0.0373      0.0373
   -167.00      0.0463      0.0463
   -166.00      0.0587      0.0587
   -165.00      0.0718      0.0718
   -164.00      0.0847      0.0847
   -163.00      0.0984      0.0984
   -162.00      0.1128      0.1128
   -161.00      0.1279      0.1279
   -160.00      0.1439      0.1439
   -159.00      0.1604      0.1604
   -158.00      0.1776      0.1776
   -157.00      0.1956      0.1956
   -156.00      0.2141      0.2141
   -155.00      0.2331      0.2331
   -154.00      0.2527      0.2527
   -153.00      0.2728      0.2728
   -152.00      0.2935      0.2935
   -151.00      0.3147      0.3147
   -150.00      0.3364      0.3364
   -149.00      0.3587      0.3587
   -148.00      0.3816      0.3816
   -147.00      0.4046      0.4046
   -146.00      0.4279      0.4279
   -145.00      0.4514      0.4514
   -144.00      0.4753      0.4753
   -143.00      0.4997      0.4997
   -142.00      0.5244      0.5244
   -141.00      0.5493      0.5493
   -140.00      0.5742      0.5742
   -139.00      0.5993      0.5993
   -138.00      0.6245      0.6245
   -137.00      0.6498      0.6498
   -136.00      0.6751      0.6751
   -135.00      0.7006      0.7006
   -134.00      0.7260      0.7260
   -133.00      0.7516      0.7516
   -132.00      0.7769      0.7769
   -131.00      0.8022      0.8022
   -130.00      0.8273      0.8273
   -129.00      0.8523      0.8523
   -128.00      0.8771      0.8771
   -127.00      0.9018      0.9018
   -126.00      0.9262      0.9262
   -125.00      0.9505      0.9505
   -124.00      0.9747      0.9747
   -123.00      0.9983      0.9983
   -122.00      1.0214      1.0214
   -121.00      1.0441      1.0441
   -120.00      1.0663      1.0663
   -119.00      1.0882      1.0882
   -118.00      1.1096      1.1096
   -117.00      1.1306      1.1306
   -116.00      1.1511      1.1511
   -115.00      1.1713      1.1713
   -114.00      1.1909      1.1909
   -113.00      1.2100      1.2100
   -112.00      1.2285      1.2285
   -111.00      1.2462      1.2462
   -110.00      1.2629      1.2629
   -109.00      1.2789      1.2789
   -108.00      1.2942      1.2942
   -107.00      1.3089      1.3089
   -106.00      1.3231      1.3231
   -105.00      1.3366      1.3366
   -104.00      1.3496      1.3496
   -103.00      1.3620      1.3620
   -102.00      1.3733      1.3733
   -101.00      1.3836      1.3836
   -100.00      1.3931      1.3931
    -99.00      1.4015      1.4015
    -98.00      1.4091      1.4091
    -97.00      1.4159      1.4159
    -96.00      1.4219      1.4219
    -95.00      1.4272      1.4272
    -94.00      1.4319      1.4319
    -93.00      1.4356      1.4356
    -92.00      1.4388      1.4388
    -91.00      1.4415      1.4415
    -90.00      1.4426      1.4426
    -89.00      1.4415      1.4415
    -88.00      1.4388      1.4388
    -87.00      1.4356      1.4356
    -86.00      1.4319      1.4319
    -85.00      1.4272      1.4272
    -84.00      1.4219      1.4219
    -83.00      1.4159      1.4159
    -82.00      1.4091      1.4091
    -81.00      1.4015      1.4015
    -80.00      1.3931      1.3931
    -79.00      1.3836      1.3836
    -78.00      1.3733      1.3733
    -77.00      1.3620      1.3620
    -76.00      1.3496      1.3496
    -75.00      1.3366      1.3366
    -74.00      1.3231      1.3231
    -73.00      1.3089      1.3089
    -72.00      1.2942      1.2942
    -71.00      1.2789      1.2789
    -70.00      1.2629      1.2629
    -69.00      1.2462      1.2462
    -68.00      1.2285      1.2285
    -67.00      1.2100      1.2100
    -66.00      1.1909      1.1909
    -65.00      1.1713      1.1713
    -64.00      1.1511      1.1511
    -63.00      1.1306      1.1306
    -62.00      1.1096      1.1096
    -61.00      1.0882      1.0882
    -60.00      1.0663      1.0663
    -59.00      1.0441      1.0441
    -58.00      1.0214      1.0214
    -57.00      0.9983      0.9983
    -56.00      0.9747      0.9747
    -55.00      0.9505      0.9505
    -54.00      0.9262      0.9262
    -53.00      0.9018      0.9018
    -52.00      0.8771      0.8771
    -51.00      0.8523      0.8523
    -50.00      0.8273      0.8273
    -49.00      0.8022      0.8022
    -48.00      0.7769      0.7769
    -47.00      0.7516      0.7516
    -46.00      0.7260      0.7260
    -45.00      0.7006      0.7006
    -44.00      0.6751      0.6751
    -43.00      0.6498      0.6498
    -42.00      0.6245      0.6245
    -41.00      0.5993      0.5993
    -40.00      0.5742      0.5742
    -39.00      0.5493      0.5493
    -38.00      0.5244      0.5244
    -37.00      0.4997      0.4997
    -36.00      0.4753      0.4753
    -35.00      0.4525      0.4525
    -34.00      0.4301      0.4301
    -33.00      0.4046      0.4046
    -32.00      0.3735      0.3735
    -31.00      0.3378      0.3378
    -30.00      0.3000      0.3000
    -29.00      0.2598      0.2598
    -28.00      0.2221      0.2221
    -27.00      0.2043      0.2043
    -26.00      0.1887      0.1887
    -25.00      0.1731      0.1731
    -24.00      0.1583      0.1583
    -23.00      0.1450      0.1450
    -22.00      0.1318      0.1318
    -21.00      0.1186      0.1186
    -20.00      0.1058      0.1058
    -19.00      0.0952      0.0952
    -18.00      0.0851      0.0851
    -17.00      0.0761      0.0761
    -16.00      0.0671      0.0671
    -15.00      0.0572      0.0572
    -14.00      0.0475      0.0475
    -13.00      0.0393      0.0393
    -12.00      0.0316      0.0316
    -11.00      0.0257      0.0257
    -10.00      0.0200      0.0200
     -9.00      0.0167      0.0167
     -8.00      0.0135      0.0135
     -7.00      0.0119      0.0119
     -6.00      0.0107      0.0107
     -5.00      0.0101      0.0101
     -4.00      0.0096      0.0096
     -3.00      0.0094      0.0094
     -2.00      0.0092      0.0092
     -1.00      0.0091      0.0091
      0.00      0.0091      0.0091
      1.00      0.0092      0.0092
      2.00      0.0094      0.0094
      3.00      0.0096      0.0096
      4.00      0.0099      0.0099
      5.00      0.0103      0.0103
      6.00      0.0109      0.0109
      7.00      0.0115      0.0115
      8.00      0.0122      0.0122
      9.00      0.0132      0.0132
     10.00      0.0143      0.0143
     11.00      0.0158      0.0158
     12.00      0.0176      0.0176
     13.00      0.0200      0.0200
     14.00      0.0238      0.0238
     15.00      0.0312      0.0312
     16.00      0.0410      0.0410
     17.00      0.0571      0.0571
     18.00      0.0738      0.0738
     19.00      0.0942      0.0942
     20.00      0.1150      0.1150
     21.00      0.1360      0.1360
     22.00      0.1570      0.1570
     23.00      0.1784      0.1784
     24.00      0.1996      0.1996
     25.00      0.2202      0.2202
     26.00      0.2405      0.2405
     27.00      0.2615      0.2615
     28.00      0.2829      0.2829
     29.00      0.3075      0.3075
     30.00      0.3320      0.3320
     31.00      0.3563      0.3563
     32.00      0.3806      0.3806
     33.00      0.4046      0.4046
     34.00      0.4282      0.4282
     35.00      0.4516      0.4516
     36.00      0.4753      0.4753
     37.00      0.4997      0.4997
     38.00      0.5244      0.5244
     39.00      0.5493      0.5493
     40.00      0.5742      0.5742
     41.00      0.5993      0.5993
     42.00      0.6245      0.6245
     43.00      0.6498      0.6498
     44.00      0.6751      0.6751
     45.00      0.7006      0.7006
     46.00      0.7260      0.7260
     47.00      0.7516      0.7516
     48.00      0.7769      0.7769
     49.00      0.8022      0.8022
     50.00      0.8273      0.8273
     51.00      0.8523      0.8523
     52.00      0.8771      0.8771
     53.00      0.9018      0.9018
     54.00      0.9262      0.9262
     55.00      0.9505      0.9505
     56.00      0.9747      0.9747
     57.00      0.9983      0.9983
     58.00      1.0214      1.0214
     59.00      1.0441      1.0441
     60.00      1.0663      1.0663
     61.00      1.0882      1.0882
     62.00      1.1096      1.1096
     63.00      1.1306      1.1306
     64.00      1.1511      1.1511
     65.00      1.1713      1.1713
     66.00      1.1909      1.1909
     67.00      1.2100      1.2100
     68.00      1.2285      1.2285
     69.00      1.2462      1.2462
     70.00      1.2629      1.2629
     71.00      1.2789      1.2789
     72.00      1.2942      1.2942
     73.00      1.3089      1.3089
     74.00      1.3231      1.3231
     75.00      1.3366      1.3366
     76.00      1.3496      1.3496
     77.00      1.3620      1.3620
     78.00      1.3733      1.3733
     79.00      1.3836      1.3836
     80.00      1.3931      1.3931
     81.00      1.4015      1.4015
     82.00      1.4091      1.4091
     83.00      1.4159      1.4159
     84.00      1.4219      1.4219
     85.00      1.4272      1.4272
     86.00      1.4319      1.4319
     87.00      1.4356      1.4356
     88.00      1.4388      1.4388
     89.00      1.4415      1.4415
     90.00      1.4426      1.4426
     91.00      1.4415      1.4415
     92.00      1.4388      1.4388
     93.00      1.4356      1.4356
     94.00      1.4319      1.4319
     95.00      1.4272      1.4272
     96.00      1.4219      1.4219
     97.00      1.4159      1.4159
     98.00      1.4091      1.4091
     99.00      1.4015      1.4015
    100.00      1.3931      1.3931
    101.00      1.3836      1.3836
    102.00      1.3733      1.3733
    103.00      1.3620      1.3620
    104.00      1.3496      1.3496
    105.00      1.3366      1.3366
    106.00      1.3231      1.3231
    107.00      1.3089      1.3089
    108.00      1.2942      1.2942
    109.00      1.2789      1.2789
    110.00      1.2629      1.2629
    111.00      1.2462      1.2462
    112.00      1.2285      1.2285
    113.00      1.2100      1.2100
    114.00      1.1909      1.1909
    115.00      1.1713      1.1713
    116.00      1.1511      1.1511
    117.00      1.1306      1.1306
    118.00      1.1096      1.1096
    119.00      1.0882      1.0882
    120.00      1.0663      1.0663
    121.00      1.0441      1.0441
    122.00      1.0214      1.0214
    123.00      0.9983      0.9983
    124.00      0.9747      0.9747
    125.00      0.9505      0.9505
    126.00      0.9262      0.9262
    127.00      0.9018      0.9018
    128.00      0.8771      0.8771
    129.00      0.8523      0.8523
    130.00      0.8273      0.8273
    131.00      0.8022      0.8022
    132.00      0.7769      0.7769
    133.00      0.7516      0.7516
    134.00      0.7260      0.7260
    135.00      0.7006      0.7006
    136.00      0.6751      0.6751
    137.00      0.6498      0.6498
    138.00      0.6245      0.6245
    139.00      0.5993      0.5993
    140.00      0.5742      0.5742
    141.00      0.5493      0.5493
    142.00      0.5244      0.5244
    143.00      0.4997      0.4997
    144.00      0.4753      0.4753
    145.00      0.4514      0.4514
    146.00      0.4279      0.4279
    147.00      0.4046      0.4046
    148.00      0.3816      0.3816
    149.00      0.3587      0.3587
    150.00      0.3364      0.3364
    151.00      0.3147      0.3147
    152.00      0.2935      0.2935
    153.00      0.2728      0.2728
    154.00      0.2527      0.2527
    155.00      0.2331      0.2331
    156.00      0.2141      0.2141
    157.00      0.1956      0.1956
    158.00      0.1776      0.1776
    159.00      0.1604      0.1604
    160.00      0.1439      0.1439
    161.00      0.1279      0.1279
    162.00      0.1128      0.1128
    163.00      0.0984      0.0984
    164.00      0.0847      0.0847
    165.00      0.0718      0.0718
    166.00      0.0587      0.0587
    167.00      0.0463      0.0463
    168.00      0.0373      0.0373
    169.00      0.0316      0.0316
    170.00      0.0273      0.0273
    171.00      0.0241      0.0241
    172.00      0.0218      0.0218
    173.00      0.0200      0.0200
    174.00      0.0185      0.0185
    175.00      0.0171      0.0171
    176.00      0.0158      0.0158
    177.00      0.0150      0.0150
    178.00      0.0144      0.0144
    179.00      0.0139      0.0139
    180.00      0.0137      0.0137
                0.0000      1.0000
   -180.00      0.0000      0.0000
   -179.00      0.0400      0.0400
   -178.00      0.0800      0.0800
   -177.00      0.1200      0.1200
   -176.00      0.1600      0.1600
   -175.00      0.2000      0.2000
   -174.00      0.2400      0.2400
   -173.00      0.2847      0.2847
   -172.00      0.3294      0.3294
   -171.00      0.3600      0.3600
   -170.00      0.3779      0.3779
   -169.00      0.3915      0.3915
   -168.00      0.3969      0.3969
   -167.00      0.3960      0.3960
   -166.00      0.3941      0.3941
   -165.00      0.3922      0.3922
   -164.00      0.3903      0.3903
   -163.00      0.3884      0.3884
   -162.00      0.3876      0.3876
   -161.00      0.3882      0.3882
   -160.00      0.3898      0.3898
   -159.00      0.3920      0.3920
   -158.00      0.3973      0.3973
   -157.00      0.4060      0.4060
   -156.00      0.4146      0.4146
   -155.00      0.4223      0.4223
   -154.00      0.4299      0.4299
   -153.00      0.4373      0.4373
   -152.00      0.4457      0.4457
   -151.00      0.4539      0.4539
   -150.00      0.4576      0.4576
   -149.00      0.4573      0.4573
   -148.00      0.4565      0.4565
   -147.00      0.4556      0.4556
   -146.00      0.4544      0.4544
   -145.00      0.4529      0.4529
   -144.00      0.4513      0.4513
   -143.00      0.4499      0.4499
   -142.00      0.4484      0.4484
   -141.00      0.4472      0.4472
   -140.00      0.4460      0.4460
   -139.00      0.4449      0.4449
   -138.00      0.4444      0.4444
   -137.00      0.4442      0.4442
   -136.00      0.4442      0.4442
   -135.00      0.4441      0.4441
   -134.00      0.4439      0.4439
   -133.00      0.4438      0.4438
   -132.00      0.4437      0.4437
   -131.00      0.4439      0.4439
   -130.00      0.4446      0.4446
   -129.00      0.4453      0.4453
   -128.00      0.4460      0.4460
   -127.00      0.4469      0.4469
   -126.00      0.4479      0.4479
   -125.00      0.4490      0.4490
   -124.00      0.4501      0.4501
   -123.00      0.4513      0.4513
   -122.00      0.4524      0.4524
   -121.00      0.4535      0.4535
   -120.00      0.4545      0.4545
   -119.00      0.4555      0.4555
   -118.00      0.4565      0.4565
   -117.00      0.4575      0.4575
   -116.00      0.4585      0.4585
   -115.00      0.4594      0.4594
   -114.00      0.4604      0.4604
   -113.00      0.4615      0.4615
   -112.00      0.4626      0.4626
   -111.00      0.4633      0.4633
   -110.00      0.4635      0.4635
   -109.00      0.4636      0.4636
   -108.00      0.4637      0.4637
   -107.00      0.4637      0.4637
   -106.00      0.4636      0.4636
   -105.00      0.4636      0.4636
   -104.00      0.4635      0.4635
   -103.00      0.4633      0.4633
   -102.00      0.4630      0.4630
   -101.00      0.4624      0.4624
   -100.00      0.4617      0.4617
    -99.00      0.4607      0.4607
    -98.00      0.4595      0.4595
    -97.00      0.4580      0.4580
    -96.00      0.4565      0.4565
    -95.00      0.4549      0.4549
    -94.00      0.4532      0.4532
    -93.00      0.4516      0.4516
    -92.00      0.4501      0.4501
    -91.00      0.4486      0.4486
    -90.00      0.4467      0.4467
    -89.00      0.4437      0.4437
    -88.00      0.4398      0.4398
    -87.00      0.4359      0.4359
    -86.00      0.4323      0.4323
    -85.00      0.4287      0.4287
    -84.00      0.4251      0.4251
    -83.00      0.4214      0.4214
    -82.00      0.4177      0.4177
    -81.00      0.4138      0.4138
    -80.00      0.4097      0.4097
    -79.00      0.4054      0.4054
    -78.00      0.4010      0.4010
    -77.00      0.3965      0.3965
    -76.00      0.3918      0.3918
    -75.00      0.3870      0.3870