IEA-15-240-RWT_AeroDyn15_Polar_23; 2 361 2 361 2 361
                0.0000      1.0000
   -180.00      0.0000      0.0000
   -179.00      0.0281      0.0281
   -178.00      0.0561      0.0561
   -177.00      0.0842      0.0842
   -176.00      0.1122      0.1122
   -175.00      0.1403      0.1403
   -174.00      0.1683      0.1683
   -173.00      0.1964      0.1964
   -172.00      0.2245      0.2245
   -171.00      0.2525      0.2525
   -170.00      0.2806      0.2806
   -169.00      0.3086      0.3086
   -168.00      0.3367      0.3367
   -167.00      0.3648      0.3648
   -166.00      0.3928      0.3928
   -165.00      0.4209      0.4209
   -164.00      0.4489      0.4489
   -163.00      0.4770      0.4770
   -162.00      0.5051      0.5051
   -161.00      0.5331      0.5331
   -160.00      0.5612      0.5612
   -159.00      0.5892      0.5892
   -158.00      0.6173      0.6173
   -157.00      0.6453      0.6453
   -156.00      0.6734      0.6734
   -155.00      0.7015      0.7015
   -154.00      0.7295      0.7295
   -153.00      0.7576      0.7576
   -152.00      0.7878      0.7878
   -151.00      0.8180      0.8180
   -150.00      0.8417      0.8417
   -149.00      0.8604      0.8604
   -148.00      0.8759      0.8759
   -147.00      0.8824      0.8824
   -146.00      0.8736      0.8736
   -145.00      0.8545      0.8545
   -144.00      0.8360      0.8360
   -143.00      0.8218      0.8218
   -142.00      0.8081      0.8081
   -141.00      0.7946      0.7946
   -140.00      0.7811      0.7811
   -139.00      0.7678      0.7678
   -138.00      0.7545      0.7545
   -137.00      0.7415      0.7415
   -136.00      0.7285      0.7285
   -135.00      0.7155      0.7155
   -134.00      0.7024      0.7024
   -133.00      0.6892      0.6892
   -132.00      0.6759      0.6759
   -131.00      0.6623      0.6623
   -130.00      0.6486      0.6486
   -129.00      0.6347      0.6347
   -128.00      0.6206      0.6206
   -127.00      0.6065      0.6065
   -126.00      0.5922      0.5922
   -125.00      0.5778      0.5778
   -124.00      0.5633      0.5633
   -123.00      0.5485      0.5485
   -122.00      0.5335      0.5335
   -121.00      0.5183      0.5183
   -120.00      0.5029      0.5029
   -119.00      0.4873      0.4873
   -118.00      0.4716      0.4716
   -117.00      0.4558      0.4558
   -116.00      0.4398      0.4398
   -115.00      0.4237      0.4237
   -114.00      0.4074      0.4074
   -113.00      0.3910      0.3910
   -112.00      0.3744      0.3744
   -111.00      0.3577      0.3577
   -110.00      0.3408      0.3408
   -109.00      0.3238      0.3238
   -108.00      0.3067      0.3067
   -107.00      0.2896      0.2896
   -106.00      0.2724      0.2724
   -105.00      0.2551      0.2551
   -104.00      0.2379      0.2379
   -103.00      0.2205      0.2205
   -102.00      0.2032      0.2032
   -101.00      0.1859      0.1859
   -100.00      0.1685      0.1685
    -99.00      0.1512      0.1512
    -98.00      0.1340      0.1340
    -97.00      0.1169      0.1169
    -96.00      0.0999      0.0999
    -95.00      0.0829      0.0829
    -94.00      0.0661      0.0661
    -93.00      0.0494      0.0494
    -92.00      0.0328      0.0328
    -91.00      0.0164      0.0164
    -90.00     -0.0000     -0.0000
    -89.00     -0.0164     -0.0164
    -88.00     -0.0328     -0.0328
    -87.00     -0.0494     -0.0494
    -86.00     -0.0661     -0.0661
    -85.00     -0.0829     -0.0829
    -84.00     -0.0999     -0.0999
    -83.00     -0.1169     -0.1169
    -82.00     -0.1340     -0.1340
    -81.00     -0.1512     -0.1512
    -80.00     -0.1685     -0.1685
    -79.00     -0.1859     -0.1859
    -78.00     -0.2032     -0.2032
    -77.00     -0.2205     -0.2205
    -76.00     -0.2379     -0.2379
    -75.00     -0.2551     -0.2551
    -74.00     -0.2724     -0.2724
    -73.00     -0.2896     -0.2896
    -72.00     -0.3067     -0.3067
    -71.00     -0.3238     -0.3238
    -70.00     -0.3408     -0.3408
    -69.00     -0.3577     -0.3577
    -68.00     -0.3744     -0.3744
    -67.00     -0.3910     -0.3910
    -66.00     -0.4074     -0.4074
    -65.00     -0.4237     -0.4237
    -64.00     -0.4398     -0.4398
    -63.00     -0.4558     -0.4558
    -62.00     -0.4716     -0.4716
    -61.00     -0.4873     -0.4873
    -60.00     -0.5029     -0.5029
    -59.00     -0.5183     -0.5183
    -58.00     -0.5335     -0.5335
    -57.00     -0.5485     -0.5485
    -56.00     -0.5633     -0.5633
    -55.00     -0.5778     -0.5778
    -54.00     -0.5922     -0.5922
    -53.00     -0.6065     -0.6065
    -52.00     -0.6206     -0.6206
    -51.00     -0.6347     -0.6347
    -50.00     -0.6486     -0.6486
    -49.00     -0.6623     -0.6623
    -48.00     -0.6759     -0.6759
    -47.00     -0.6895     -0.6895
    -46.00     -0.7030     -0.7030
    -45.00     -0.7155     -0.7155
    -44.00     -0.7265     -0.7265
    -43.00     -0.7367     -0.7367
    -42.00     -0.7472     -0.7472
    -41.00     -0.7583     -0.7583
    -40.00     -0.7697     -0.7697
    -39.00     -0.7813     -0.7813
    -38.00     -0.7932     -0.7932
    -37.00     -0.8055     -0.8055
    -36.00     -0.8183     -0.8183
    -35.00     -0.8308     -0.8308
    -34.00     -0.8440     -0.8440
    -33.00     -0.8617     -0.8617
    -32.00     -0.8909     -0.8909
    -31.00     -0.9319     -0.9319
    -30.00     -0.9774     -0.9774
    -29.00     -1.0285     -1.0285
    -28.00     -1.0748     -1.0748
    -27.00     -1.0790     -1.0790
    -26.00     -1.0778     -1.0778
    -25.00     -1.0775     -1.0775
    -24.00     -1.0784     -1.0784
    -23.00     -1.0816     -1.0816
    -22.00     -1.0866     -1.0866
    -21.00     -1.0916     -1.0916
    -20.00     -1.0943     -1.0943
    -19.00     -1.0963     -1.0963
    -18.00     -1.0978     -1.0978
    -17.00     -1.0956     -1.0956
    -16.00     -1.0932     -1.0932
    -15.00     -1.0986     -1.0986
    -14.00     -1.1044     -1.1044
    -13.00     -1.1006     -1.1006
    -12.00     -1.0855     -1.0855
    -11.00     -1.0072     -1.0072
    -10.00     -0.9199     -0.9199
     -9.00     -0.8075     -0.8075
     -8.00     -0.6934     -0.6934
     -7.00     -0.5725     -0.5725
     -6.00     -0.4498     -0.4498
     -5.00     -0.3137     -0.3137
     -4.00     -0.1756     -0.1756
     -3.00     -0.0353     -0.0353
     -2.00      0.1049      0.1049
     -1.00      0.2419      0.2419
      0.00      0.3766      0.3766
      1.00      0.5104      0.5104
      2.00      0.6426      0.6426
      3.00      0.7733      0.7733
      4.00      0.9027      0.9027
      5.00      1.0301      1.0301
      6.00      1.1553      1.1553
      7.00      1.2786      1.2786
      8.00      1.3984      1.3984
      9.00      1.5144      1.5144
     10.00      1.6256      1.6256
     11.00      1.7277      1.7277
     12.00      1.8202      1.8202
     13.00      1.8999      1.8999
     14.00      1.9559      1.9559
     15.00      1.9724      1.9724
     16.00      1.9614      1.9614
     17.00      1.9080      1.9080
     18.00      1.8510      1.8510
     19.00      1.7589      1.7589
     20.00      1.6682      1.6682
     21.00      1.6016      1.6016
     22.00      1.5387      1.5387
     23.00      1.4760      1.4760
     24.00      1.4152      1.4152
     25.00      1.3890      1.3890
     26.00      1.3662      1.3662
     27.00      1.3460      1.3460
     28.00      1.3257      1.3257
     29.00      1.3081      1.3081
     30.00      1.2912      1.2912
     31.00      1.2739      1.2739
     32.00      1.2561      1.2561
     33.00      1.2374      1.2374
     34.00      1.2169      1.2169
     35.00      1.1953      1.1953
     36.00      1.1747      1.1747
     37.00      1.1559      1.1559
     38.00      1.1380      1.1380
     39.00      1.1205      1.1205
     40.00      1.1033      1.1033
     41.00      1.0864      1.0864
     42.00      1.0699      1.0699
     43.00      1.0540      1.0540
     44.00      1.0385      1.0385
     45.00      1.0221      1.0221
     46.00      1.0040      1.0040
     47.00      0.9849      0.9849
     48.00      0.9656      0.9656
     49.00      0.9462      0.9462
     50.00      0.9265      0.9265
     51.00      0.9066      0.9066
     52.00      0.8866      0.8866
     53.00      0.8664      0.8664
     54.00      0.8459      0.8459
     55.00      0.8254      0.8254
     56.00      0.8047      0.8047
     57.00      0.7836      0.7836
     58.00      0.7622      0.7622
     59.00      0.7404      0.7404
     60.00      0.7184      0.7184
     61.00      0.6962      0.6962
     62.00      0.6737      0.6737
     63.00      0.6511      0.6511
     64.00      0.6283      0.6283
     65.00      0.6053      0.6053
     66.00      0.5820      0.5820
     67.00      0.5586      0.5586
     68.00      0.5349      0.5349
     69.00      0.5110      0.5110
     70.00      0.4869      0.4869
     71.00      0.4626      0.4626
     72.00      0.4381      0.4381
     73.00      0.4137      0.4137
     74.00      0.3891      0.3891
     75.00      0.3645      0.3645
     76.00      0.3398      0.3398
     77.00      0.3150      0.3150
     78.00      0.2903      0.2903
     79.00      0.2655      0.2655
     80.00      0.2407      0.2407
     81.00      0.2160      0.2160
     82.00      0.1915      0.1915
     83.00      0.1670      0.1670
     84.00      0.1427      0.1427
     85.00      0.1185      0.1185
     86.00      0.0944      0.0944
     87.00      0.0706      0.0706
     88.00      0.0460      0.0460
     89.00      0.0216      0.0216
     90.00      0.0000      0.0000
     91.00     -0.0177     -0.0177
     92.00     -0.0335     -0.0335
     93.00     -0.0494     -0.0494
     94.00     -0.0661     -0.0661
     95.00     -0.0829     -0.0829
     96.00     -0.0999     -0.0999
     97.00     -0.1169     -0.1169
     98.00     -0.1340     -0.1340
     99.00     -0.1512     -0.1512
    100.00     -0.1685     -0.1685
    101.00     -0.1859     -0.1859
    102.00     -0.2032     -0.2032
    103.00     -0.2205     -0.2205
    104.00     -0.2379     -0.2379
    105.00     -0.2551     -0.2551
    106.00     -0.2724     -0.2724
    107.00     -0.2896     -0.2896
    108.00     -0.3067     -0.3067
    109.00     -0.3238     -0.3238
    110.00     -0.3408     -0.3408
    111.00     -0.3577     -0.3577
    112.00     -0.3744     -0.3744
    113.00     -0.3910     -0.3910
    114.00     -0.4074     -0.4074
    115.00     -0.4237     -0.4237
    116.00     -0.4398     -0.4398
    117.00     -0.4558     -0.4558
    118.00     -0.4716     -0.4716
    119.00     -0.4873     -0.4873
    120.00     -0.5029     -0.5029
    121.00     -0.5183     -0.5183
    122.00     -0.5335     -0.5335
    123.00     -0.5485     -0.5485
    124.00     -0.5633     -0.5633
    125.00     -0.5778     -0.5778
    126.00     -0.5922     -0.5922
    127.00     -0.6065     -0.6065
    128.00     -0.6206     -0.6206
    129.00     -0.6347     -0.6347
    130.00     -0.6486     -0.6486
    131.00     -0.6623     -0.6623
    132.00     -0.6759     -0.6759
    133.00     -0.6892     -0.6892
    134.00     -0.7024     -0.7024
    135.00     -0.7155     -0.7155
    136.00     -0.7285     -0.7285
    137.00     -0.7415     -0.7415
    138.00     -0.7545     -0.7545
    139.00     -0.7678     -0.7678
    140.00     -0.7811     -0.7811
    141.00     -0.7946     -0.7946
    142.00     -0.8081     -0.8081
    143.00     -0.8218     -0.8218
    144.00     -0.8360     -0.8360
    145.00     -0.8545     -0.8545
    146.00     -0.8736     -0.8736
    147.00     -0.8824     -0.8824
    148.00     -0.8759     -0.8759
    149.00     -0.8604     -0.8604
    150.00     -0.8417     -0.8417
    151.00     -0.8180     -0.8180
    152.00     -0.7878     -0.7878
    153.00     -0.7576     -0.7576
    154.00     -0.7295     -0.7295
    155.00     -0.7015     -0.7015
    156.00     -0.6734     -0.6734
    157.00     -0.6453     -0.6453
    158.00     -0.6173     -0.6173
    159.00     -0.5892     -0.5892
    160.00     -0.5612     -0.5612
    161.00     -0.5331     -0.5331
    162.00     -0.5050     -0.5050
    163.00     -0.4770     -0.4770
    164.00     -0.4489     -0.4489
    165.00     -0.4209     -0.4209
    166.00     -0.3928     -0.3928
    167.00     -0.3648     -0.3648
    168.00     -0.3367     -0.3367
    169.00     -0.3086     -0.3086
    170.00     -0.2806     -0.2806
    171.00     -0.2525     -0.2525
    172.00     -0.2245     -0.2245
    173.00     -0.1964     -0.1964
    174.00     -0.1683     -0.1683
    175.00     -0.1403     -0.1403
    176.00     -0.1122     -0.1122
    177.00     -0.0842     -0.0842
    178.00     -0.0561     -0.0561
    179.00     -0.0281     -0.0281
    180.00      0.0000      0.0000
                0.0000      1.0000
   -180.00      0.0217      0.0217
   -179.00      0.0219      0.0219
   -178.00      0.0224      0.0224
   -177.00      0.0229      0.0229
   -176.00      0.0237      0.0237
   -175.00      0.0248      0.0248
   -174.00      0.0261      0.0261
   -173.00      0.0275      0.0275
   -172.00      0.0291      0.0291
   -171.00      0.0312      0.0312
   -170.00      0.0340      0.0340
   -169.00      0.0377      0.0377
   -168.00      0.0427      0.0427
   -167.00      0.0506      0.0506
   -166.00      0.0617      0.0617
   -165.00      0.0735      0.0735
   -164.00      0.0853      0.0853
   -163.00      0.0979      0.0979
   -162.00      0.1112      0.1112
   -161.00      0.1251      0.1251
   -160.00      0.1398      0.1398
   -159.00      0.1550      0.1550
   -158.00      0.1708      0.1708
   -157.00      0.1872      0.1872
   -156.00      0.2041      0.2041
   -155.00      0.2215      0.2215
   -154.00      0.2394      0.2394
   -153.00      0.2578      0.2578
   -152.00      0.2766      0.2766
   -151.00      0.2960      0.2960
   -150.00      0.3158      0.3158
   -149.00      0.3361      0.3361
   -148.00      0.3569      0.3569
   -147.00      0.3779      0.3779
   -146.00      0.3990      0.3990
   -145.00      0.4205      0.4205
   -144.00      0.4422      0.4422
   -143.00      0.4643      0.4643
   -142.00      0.4868      0.4868
   -141.00      0.5094      0.5094
   -140.00      0.5320      0.5320
   -139.00      0.5548      0.5548
   -138.00      0.5777      0.5777
   -137.00      0.6006      0.6006
   -136.00      0.6237      0.6237
   -135.00      0.6467      0.6467
   -134.00      0.6699      0.6699
   -133.00      0.6930      0.6930
   -132.00      0.7160      0.7160
   -131.00      0.7389      0.7389
   -130.00      0.7617      0.7617
   -129.00      0.7843      0.7843
   -128.00      0.8068      0.8068
   -127.00      0.8291      0.8291
   -126.00      0.8512      0.8512
   -125.00      0.8733      0.8733
   -124.00      0.8951      0.8951
   -123.00      0.9165      0.9165
   -122.00      0.9374      0.9374
   -121.00      0.9579      0.9579
   -120.00      0.9780      0.9780
   -119.00      0.9977      0.9977
   -118.00      1.0170      1.0170
   -117.00      1.0360      1.0360
   -116.00      1.0545      1.0545
   -115.00      1.0727      1.0727
   -114.00      1.0904      1.0904
   -113.00      1.1076      1.1076
   -112.00      1.1243      1.1243
   -111.00      1.1402      1.1402
   -110.00      1.1553      1.1553
   -109.00      1.1696      1.1696
   -108.00      1.1833      1.1833
   -107.00      1.1966      1.1966
   -106.00      1.2093      1.2093
   -105.00      1.2214      1.2214
   -104.00      1.2330      1.2330
   -103.00      1.2441      1.2441
   -102.00      1.2542      1.2542
   -101.00      1.2634      1.2634
   -100.00      1.2718      1.2718
    -99.00      1.2793      1.2793
    -98.00      1.2860      1.2860
    -97.00      1.2920      1.2920
    -96.00      1.2972      1.2972
    -95.00      1.3018      1.3018
    -94.00      1.3059      1.3059
    -93.00      1.3090      1.3090
    -92.00      1.3117      1.3117
    -91.00      1.3139      1.3139
    -90.00      1.3148      1.3148
    -89.00      1.3139      1.3139
    -88.00      1.3117      1.3117
    -87.00      1.3090      1.3090
    -86.00      1.3059      1.3059
    -85.00      1.3018      1.3018
    -84.00      1.2972      1.2972
    -83.00      1.2920      1.2920
    -82.00      1.2860      1.2860
    -81.00      1.2793      1.2793
    -80.00      1.2718      1.2718
    -79.00      1.2634      1.2634
    -78.00      1.2542      1.2542
    -77.00      1.2441      1.2441
    -76.00      1.2330      1.2330
    -75.00      1.2214      1.2214
    -74.00      1.2093      1.2093
    -73.00      1.1966      1.1966
    -72.00      1.1833      1.1833
    -71.00      1.1696      1.1696
    -70.00      1.1553      1.1553
    -69.00      1.1402      1.1402
    -68.00      1.1243      1.1243
    -67.00      1.1076      1.1076
    -66.00      1.0904      1.0904
    -65.00      1.0727      1.0727
    -64.00      1.0545      1.0545
    -63.00      1.0360      1.0360
    -62.00      1.0170      1.0170
    -61.00      0.9977      0.9977
    -60.00      0.9780      0.9780
    -59.00      0.9579      0.9579
    -58.00      0.9374      0.9374
    -57.00      0.9165      0.9165
    -56.00      0.8951      0.8951
    -55.00      0.8733      0.8733
    -54.00      0.8512      0.8512
    -53.00      0.8291      0.8291
    -52.00      0.8068      0.8068
    -51.00      0.7843      0.7843
    -50.00      0.7617      0.7617
    -49.00      0.7389      0.7389
    -48.00      0.7160      0.7160
    -47.00      0.6930      0.6930
    -46.00      0.6699      0.6699
    -45.00      0.6467      0.6467
    -44.00      0.6237      0.6237
    -43.00      0.6006      0.6006
    -42.00      0.5777      0.5777
    -41.00      0.5548      0.5548
    -40.00      0.5320      0.5320
    -39.00      0.5094      0.5094
    -38.00      0.4868      0.4868
    -37.00      0.4643      0.4643
    -36.00      0.4422      0.4422
    -35.00      0.4213      0.4213
    -34.00      0.4008      0.4008
    -33.00      0.3779      0.3779
    -32.00      0.3507      0.3507
    -31.00      0.3202      0.3202
    -30.00      0.2879      0.2879
    -29.00      0.2532      0.2532
    -28.00      0.2198      0.2198
    -27.00      0.2029      0.2029
    -26.00      0.1879      0.1879
    -25.00      0.1728      0.1728
    -24.00      0.1578      0.1578
    -23.00      0.1444      0.1444
    -22.00      0.1310      0.1310
    -21.00      0.1174      0.1174
    -20.00      0.1045      0.1045
    -19.00      0.0935      0.0935
    -18.00      0.0830      0.0830
    -17.00      0.0736      0.0736
    -16.00      0.0644      0.0644
    -15.00      0.0558      0.0558
    -14.00      0.0473      0.0473
    -13.00      0.0396      0.0396
    -12.00      0.0321      0.0321
    -11.00      0.0270      0.0270
    -10.00      0.0221      0.0221
     -9.00      0.0194      0.0194
     -8.00      0.0169      0.0169
     -7.00      0.0151      0.0151
     -6.00      0.0135      0.0135
     -5.00      0.0126      0.0126
     -4.00      0.0118      0.0118
     -3.00      0.0114      0.0114
     -2.00      0.0110      0.0110
     -1.00      0.0109      0.0109
      0.00      0.0109      0.0109
      1.00      0.0109      0.0109
      2.00      0.0111      0.0111
      3.00      0.0113      0.0113
      4.00      0.0115      0.0115
      5.00      0.0119      0.0119
      6.00      0.0124      0.0124
      7.00      0.0129      0.0129
      8.00      0.0136      0.0136
      9.00      0.0144      0.0144
     10.00      0.0154      0.0154
     11.00      0.0168      0.0168
     12.00      0.0186      0.0186
     13.00      0.0212      0.0212
     14.00      0.0253      0.0253
     15.00      0.0324      0.0324
     16.00      0.0419      0.0419
     17.00      0.0555      0.0555
     18.00      0.0696      0.0696
     19.00      0.0887      0.0887
     20.00      0.1084      0.1084
     21.00      0.1297      0.1297
     22.00      0.1513      0.1513
     23.00      0.1728      0.1728
     24.00      0.1946      0.1946
     25.00      0.2151      0.2151
     26.00      0.2354      0.2354
     27.00      0.2556      0.2556
     28.00      0.2758      0.2758
     29.00      0.2960      0.2960
     30.00      0.3162      0.3162
     31.00      0.3365      0.3365
     32.00      0.3571      0.3571
     33.00      0.3779      0.3779
     34.00      0.3990      0.3990
     35.00      0.4204      0.4204
     36.00      0.4422      0.4422
     37.00      0.4643      0.4643
     38.00      0.4868      0.4868
     39.00      0.5094      0.5094
     40.00      0.5320      0.5320
     41.00      0.5548      0.5548
     42.00      0.5777      0.5777
     43.00      0.6006      0.6006
     44.00      0.6237      0.6237
     45.00      0.6467      0.6467
     46.00      0.6699      0.6699
     47.00      0.6930      0.6930
     48.00      0.7160      0.7160
     49.00      0.7389      0.7389
     50.00      0.7617      0.7617
     51.00      0.7843      0.7843
     52.00      0.8068      0.8068
     53.00      0.8291      0.8291
     54.00      0.8512      0.8512
     55.00      0.8733      0.8733
     56.00      0.8951      0.8951
     57.00      0.9165      0.9165
     58.00      0.9374      0.9374
     59.00      0.9579      0.9579
     60.00      0.9780      0.9780
     61.00      0.9977      0.9977
     62.00      1.0170      1.0170
     63.00      1.0360      1.0360
     64.00      1.0545      1.0545
     65.00      1.0727      1.0727
     66.00      1.0904      1.0904
     67.00      1.1076      1.1076
     68.00      1.1243      1.1243
     69.00      1.1402      1.1402
     70.00      1.1553      1.1553
     71.00      1.1696      1.1696
     72.00      1.1833      1.1833
     73.00      1.1966      1.1966
     74.00      1.2093      1.2093
     75.00      1.2214      1.2214
     76.00      1.2330      1.2330
     77.00      1.2441      1.2441
     78.00      1.2542      1.2542
     79.00      1.2634      1.2634
     80.00      1.2718      1.2718
     81.00      1.2793      1.2793
     82.00      1.2860      1.2860
     83.00      1.2920      1.2920
     84.00      1.2972      1.2972
     85.00      1.3018      1.3018
     86.00      1.3059      1.3059
     87.00      1.3090      1.3090
     88.00      1.3117      1.3117
     89.00      1.3139      1.3139
     90.00      1.3148      1.3148
     91.00      1.3139      1.3139
     92.00      1.3117      1.3117
     93.00      1.3090      1.3090
     94.00      1.3059      1.3059
     95.00      1.3018      1.3018
     96.00      1.2972      1.2972
     97.00      1.2920      1.2920
     98.00      1.2860      1.2860
     99.00      1.2793      1.2793
    100.00      1.2718      1.2718
    101.00      1.2634      1.2634
    102.00      1.2542      1.2542
    103.00      1.2441      1.2441
    104.00      1.2330      1.2330
    105.00      1.2214      1.2214
    106.00      1.2093      1.2093
    107.00      1.1966      1.1966
    108.00      1.1833      1.1833
    109.00      1.1696      1.1696
    110.00      1.1553      1.1553
    111.00      1.1402      1.1402
    112.00      1.1243      1.1243
    113.00      1.1076      1.1076
    114.00      1.0904      1.0904
    115.00      1.0727      1.0727
    116.00      1.0545      1.0545
    117.00      1.0360      1.0360
    118.00      1.0170      1.0170
    119.00      0.9977      0.9977
    120.00      0.9780      0.9780
    121.00      0.9579      0.9579
    122.00      0.9374      0.9374
    123.00      0.9165      0.9165
    124.00      0.8951      0.8951
    125.00      0.8733      0.8733
    126.00      0.8512      0.8512
    127.00      0.8291      0.8291
    128.00      0.8068      0.8068
    129.00      0.7843      0.7843
    130.00      0.7617      0.7617
    131.00      0.7389      0.7389
    132.00      0.7160      0.7160
    133.00      0.6930      0.6930
    134.00      0.6699      0.6699
    135.00      0.6467      0.6467
    136.00      0.6237      0.6237
    137.00      0.6006      0.6006
    138.00      0.5777      0.5777
    139.00      0.5548      0.5548
    140.00      0.5320      0.5320
    141.00      0.5094      0.5094
    142.00      0.4868      0.4868
    143.00      0.4643      0.4643
    144.00      0.4422      0.4422
    145.00      0.4205      0.4205
    146.00      0.3990      0.3990
    147.00      0.3779      0.3779
    148.00      0.3569      0.3569
    149.00      0.3361      0.3361
    150.00      0.3158      0.3158
    151.00      0.2960      0.2960
    152.00      0.2766      0.2766
    153.00      0.2578      0.2578
    154.00      0.2394      0.2394
    155.00      0.2215      0.2215
    156.00      0.2041      0.2041
    157.00      0.1872      0.1872
    158.00      0.1708      0.1708
    159.00      0.1550      0.1550
    160.00      0.1398      0.1398
    161.00      0.1251      0.1251
    162.00      0.1112      0.1112
    163.00      0.0979      0.0979
    164.00      0.0853      0.0853
    165.00      0.0735      0.0735
    166.00      0.0617      0.0617
    167.00      0.0506      0.0506
    168.00      0.0427      0.0427
    169.00      0.0377      0.0377
    170.00      0.0340      0.0340
    171.00      0.0312      0.0312
    172.00      0.0291      0.0291
    173.00      0.0275      0.0275
    174.00      0.0261      0.0261
    175.00      0.0248      0.0248
    176.00      0.0237      0.0237
    177.00      0.0229      0.0229
    178.00      0.0224      0.0224
    179.00      0.0219      0.0219
    180.00      0.0217      0.0217
                0.0000      1.0000
   -180.00      0.0000      0.0000
   -179.00      0.0400      0.0400
   -178.00      0.0800      0.0800
   -177.00      0.1200      0.1200
   -176.00      0.1600      0.1600
   -175.00      0.2000      0.2000
   -174.00      0.2400      0.2400
   -173.00      0.2844      0.2844
   -172.00      0.3288      0.3288
   -171.00      0.3600      0.3600
   -170.00      0.3793      0.3793
   -169.00      0.3942      0.3942
   -168.00      0.4003      0.4003
   -167.00      0.4006      0.4006
   -166.00      0.4007      0.4007
   -165.00      0.4008      0.4008
   -164.00      0.4009      0.4009
   -163.00      0.4011      0.4011
   -162.00      0.4013      0.4013
   -161.00      0.4026      0.4026
   -160.00      0.4053      0.4053
   -159.00      0.4089      0.4089
   -158.00      0.4147      0.4147
   -157.00      0.4228      0.4228
   -156.00      0.4309      0.4309
   -155.00      0.4384      0.4384
   -154.00      0.4458      0.4458
   -153.00      0.4529      0.4529
   -152.00      0.4610      0.4610
   -151.00      0.4688      0.4688
   -150.00      0.4723      0.4723
   -149.00      0.4711      0.4711
   -148.00      0.4683      0.4683
   -147.00      0.4653      0.4653
   -146.00      0.4624      0.4624
   -145.00      0.4591      0.4591
   -144.00      0.4559      0.4559
   -143.00      0.4527      0.4527
   -142.00      0.4496      0.4496
   -141.00      0.4468      0.4468
   -140.00      0.4443      0.4443
   -139.00      0.4420      0.4420
   -138.00      0.4399      0.4399
   -137.00      0.4381      0.4381
   -136.00      0.4365      0.4365
   -135.00      0.4349      0.4349
   -134.00      0.4331      0.4331
   -133.00      0.4313      0.4313
   -132.00      0.4299      0.4299
   -131.00      0.4291      0.4291
   -130.00      0.4284      0.4284
   -129.00      0.4280      0.4280
   -128.00      0.4278      0.4278
   -127.00      0.4276      0.4276
   -126.00      0.4276      0.4276
   -125.00      0.4277      0.4277
   -124.00      0.4280      0.4280
   -123.00      0.4284      0.4284
   -122.00      0.4287      0.4287
   -121.00      0.4291      0.4291
   -120.00      0.4295      0.4295
   -119.00      0.4299      0.4299
   -118.00      0.4304      0.4304
   -117.00      0.4308      0.4308
   -116.00      0.4313      0.4313
   -115.00      0.4318      0.4318
   -114.00      0.4324      0.4324
   -113.00      0.4330      0.4330
   -112.00      0.4336      0.4336
   -111.00      0.4339      0.4339
   -110.00      0.4338      0.4338
   -109.00      0.4337      0.4337
   -108.00      0.4336      0.4336
   -107.00      0.4334      0.4334
   -106.00      0.4331      0.4331
   -105.00      0.4329      0.4329
   -104.00      0.4326      0.4326
   -103.00      0.4322      0.4322
   -102.00      0.4317      0.4317
   -101.00      0.4311      0.4311
   -100.00      0.4302      0.4302
    -99.00      0.4292      0.4292
    -98.00      0.4280      0.4280
    -97.00      0.4265      0.4265
    -96.00      0.4250      0.4250
    -95.00      0.4234      0.4234
    -94.00      0.4218      0.4218
    -93.00      0.4202      0.4202
    -92.00      0.4187      0.4187
    -91.00      0.4172      0.4172
    -90.00      0.4154      0.4154
    -89.00      0.4126      0.4126
    -88.00      0.4090      0.4090
    -87.00      0.4055      0.4055
    -86.00      0.4022      0.4022
    -85.00      0.3989      0.3989
    -84.00      0.3956      0.3956
    -83.00      0.3922      0.3922
    -82.00      0.3888      0.3888
    -81.00      0.3853      0.3853
    -80.00      0.3816      0.3816
    -79.00      0.3777      0.3777
    -78.00      0.3737      0.3737
    -77.00      0.3696      0.3696
    -76.00      0.3654      0.3654
    -75.00      0.3612      0.3612