IEA-15-240-RWT_AeroDyn15_Polar_35; 2 361 2 361 2 361
                0.0000      1.0000
   -180.00      0.0000      0.0000
   -179.00      0.0241      0.0241
   -178.00      0.0483      0.0483
   -177.00      0.0724      0.0724
   -176.00      0.0966      0.0966
   -175.00      0.1207      0.1207
   -174.00      0.1449      0.1449
   -173.00      0.1690      0.1690
   -172.00      0.1931      0.1931
   -171.00      0.2173      0.2173
   -170.00      0.2414      0.2414
   -169.00      0.2656      0.2656
   -168.00      0.2897      0.2897
   -167.00      0.3138      0.3138
   -166.00      0.3380      0.3380
   -165.00      0.3621      0.3621
   -164.00      0.3863      0.3863
   -163.00      0.4104      0.4104
   -162.00      0.4346      0.4346
   -161.00      0.4587      0.4587
   -160.00      0.4828      0.4828
   -159.00      0.5070      0.5070
   -158.00      0.5311      0.5311
   -157.00      0.5553      0.5553
   -156.00      0.5794      0.5794
   -155.00      0.6035      0.6035
   -154.00      0.6277      0.6277
   -153.00      0.6518      0.6518
   -152.00      0.6774      0.6774
   -151.00      0.7030      0.7030
   -150.00      0.7243      0.7243
   -149.00      0.7430      0.7430
   -148.00      0.7592      0.7592
   -147.00      0.7661      0.7661
   -146.00      0.7625      0.7625
   -145.00      0.7547      0.7547
   -144.00      0.7468      0.7468
   -143.00      0.7404      0.7404
   -142.00      0.7339      0.7339
   -141.00      0.7272      0.7272
   -140.00      0.7204      0.7204
   -139.00      0.7134      0.7134
   -138.00      0.7062      0.7062
   -137.00      0.6989      0.6989
   -136.00      0.6914      0.6914
   -135.00      0.6835      0.6835
   -134.00      0.6753      0.6753
   -133.00      0.6668      0.6668
   -132.00      0.6579      0.6579
   -131.00      0.6485      0.6485
   -130.00      0.6387      0.6387
   -129.00      0.6286      0.6286
   -128.00      0.6181      0.6181
   -127.00      0.6072      0.6072
   -126.00      0.5960      0.5960
   -125.00      0.5845      0.5845
   -124.00      0.5728      0.5728
   -123.00      0.5605      0.5605
   -122.00      0.5476      0.5476
   -121.00      0.5342      0.5342
   -120.00      0.5205      0.5205
   -119.00      0.5065      0.5065
   -118.00      0.4922      0.4922
   -117.00      0.4775      0.4775
   -116.00      0.4626      0.4626
   -115.00      0.4474      0.4474
   -114.00      0.4319      0.4319
   -113.00      0.4161      0.4161
   -112.00      0.4000      0.4000
   -111.00      0.3835      0.3835
   -110.00      0.3666      0.3666
   -109.00      0.3493      0.3493
   -108.00      0.3319      0.3319
   -107.00      0.3143      0.3143
   -106.00      0.2965      0.2965
   -105.00      0.2786      0.2786
   -104.00      0.2605      0.2605
   -103.00      0.2423      0.2423
   -102.00      0.2239      0.2239
   -101.00      0.2054      0.2054
   -100.00      0.1867      0.1867
    -99.00      0.1680      0.1680
    -98.00      0.1493      0.1493
    -97.00      0.1305      0.1305
    -96.00      0.1118      0.1118
    -95.00      0.0930      0.0930
    -94.00      0.0743      0.0743
    -93.00      0.0557      0.0557
    -92.00      0.0371      0.0371
    -91.00      0.0185      0.0185
    -90.00     -0.0000     -0.0000
    -89.00     -0.0185     -0.0185
    -88.00     -0.0371     -0.0371
    -87.00     -0.0557     -0.0557
    -86.00     -0.0743     -0.0743
    -85.00     -0.0930     -0.0930
    -84.00     -0.1118     -0.1118
    -83.00     -0.1305     -0.1305
    -82.00     -0.1493     -0.1493
    -81.00     -0.1680     -0.1680
    -80.00     -0.1867     -0.1867
    -79.00     -0.2054     -0.2054
    -78.00     -0.2239     -0.2239
    -77.00     -0.2423     -0.2423
    -76.00     -0.2605     -0.2605
    -75.00     -0.2786     -0.2786
    -74.00     -0.2965     -0.2965
    -73.00     -0.3143     -0.3143
    -72.00     -0.3319     -0.3319
    -71.00     -0.3493     -0.3493
    -70.00     -0.3666     -0.3666
    -69.00     -0.3835     -0.3835
    -68.00     -0.4000     -0.4000
    -67.00     -0.4161     -0.4161
    -66.00     -0.4319     -0.4319
    -65.00     -0.4474     -0.4474
    -64.00     -0.4626     -0.4626
    -63.00     -0.4775     -0.4775
    -62.00     -0.4922     -0.4922
    -61.00     -0.5065     -0.5065
    -60.00     -0.5205     -0.5205
    -59.00     -0.5342     -0.5342
    -58.00     -0.5476     -0.5476
    -57.00     -0.5605     -0.5605
    -56.00     -0.5728     -0.5728
    -55.00     -0.5845     -0.5845
    -54.00     -0.5960     -0.5960
    -53.00     -0.6072     -0.6072
    -52.00     -0.6181     -0.6181
    -51.00     -0.6286     -0.6286
    -50.00     -0.6387     -0.6387
    -49.00     -0.6485     -0.6485
    -48.00     -0.6579     -0.6579
    -47.00     -0.6686     -0.6686
    -46.00     -0.6789     -0.6789
    -45.00     -0.6835     -0.6835
    -44.00     -0.6809     -0.6809
    -43.00     -0.6749     -0.6749
    -42.00     -0.6687     -0.6687
    -41.00     -0.6634     -0.6634
    -40.00     -0.6579     -0.6579
    -39.00     -0.6522     -0.6522
    -38.00     -0.6458     -0.6458
    -37.00     -0.6392     -0.6392
    -36.00     -0.6343     -0.6343
    -35.00     -0.6310     -0.6310
    -34.00     -0.6285     -0.6285
    -33.00     -0.6274     -0.6274
    -32.00     -0.6411     -0.6411
    -31.00     -0.6732     -0.6732
    -30.00     -0.7104     -0.7104
    -29.00     -0.7537     -0.7537
    -28.00     -0.7998     -0.7998
    -27.00     -0.8591     -0.8591
    -26.00     -0.9197     -0.9197
    -25.00     -0.9820     -0.9820
    -24.00     -1.0517     -1.0517
    -23.00     -1.0740     -1.0740
    -22.00     -1.0953     -1.0953
    -21.00     -1.1165     -1.1165
    -20.00     -1.1358     -1.1358
    -19.00     -1.1404     -1.1404
    -18.00     -1.1423     -1.1423
    -17.00     -1.1378     -1.1378
    -16.00     -1.1326     -1.1326
    -15.00     -1.1216     -1.1216
    -14.00     -1.1099     -1.1099
    -13.00     -1.0872     -1.0872
    -12.00     -1.0574     -1.0574
    -11.00     -0.9845     -0.9845
    -10.00     -0.9069     -0.9069
     -9.00     -0.7764     -0.7764
     -8.00     -0.6452     -0.6452
     -7.00     -0.5145     -0.5145
     -6.00     -0.3842     -0.3842
     -5.00     -0.2557     -0.2557
     -4.00     -0.1275     -0.1275
     -3.00     -0.0015     -0.0015
     -2.00      0.1243      0.1243
     -1.00      0.2491      0.2491
      0.00      0.3734      0.3734
      1.00      0.4974      0.4974
      2.00      0.6203      0.6203
      3.00      0.7422      0.7422
      4.00      0.8630      0.8630
      5.00      0.9819      0.9819
      6.00      1.0980      1.0980
      7.00      1.2112      1.2112
      8.00      1.3196      1.3196
      9.00      1.4242      1.4242
     10.00      1.5252      1.5252
     11.00      1.6190      1.6190
     12.00      1.7056      1.7056
     13.00      1.7808      1.7808
     14.00      1.8309      1.8309
     15.00      1.8507      1.8507
     16.00      1.8179      1.8179
     17.00      1.7363      1.7363
     18.00      1.6531      1.6531
     19.00      1.5746      1.5746
     20.00      1.4994      1.4994
     21.00      1.4442      1.4442
     22.00      1.3921      1.3921
     23.00      1.3385      1.3385
     24.00      1.2829      1.2829
     25.00      1.2350      1.2350
     26.00      1.1948      1.1948
     27.00      1.1559      1.1559
     28.00      1.1182      1.1182
     29.00      1.0693      1.0693
     30.00      1.0240      1.0240
     31.00      0.9877      0.9877
     32.00      0.9572      0.9572
     33.00      0.9444      0.9444
     34.00      0.9463      0.9463
     35.00      0.9504      0.9504
     36.00      0.9544      0.9544
     37.00      0.9577      0.9577
     38.00      0.9609      0.9609
     39.00      0.9639      0.9639
     40.00      0.9666      0.9666
     41.00      0.9692      0.9692
     42.00      0.9714      0.9714
     43.00      0.9736      0.9736
     44.00      0.9756      0.9756
     45.00      0.9765      0.9765
     46.00      0.9699      0.9699
     47.00      0.9551      0.9551
     48.00      0.9398      0.9398
     49.00      0.9264      0.9264
     50.00      0.9124      0.9124
     51.00      0.8979      0.8979
     52.00      0.8829      0.8829
     53.00      0.8674      0.8674
     54.00      0.8514      0.8514
     55.00      0.8351      0.8351
     56.00      0.8182      0.8182
     57.00      0.8007      0.8007
     58.00      0.7823      0.7823
     59.00      0.7632      0.7632
     60.00      0.7436      0.7436
     61.00      0.7236      0.7236
     62.00      0.7031      0.7031
     63.00      0.6822      0.6822
     64.00      0.6609      0.6609
     65.00      0.6392      0.6392
     66.00      0.6170      0.6170
     67.00      0.5944      0.5944
     68.00      0.5714      0.5714
     69.00      0.5478      0.5478
     70.00      0.5237      0.5237
     71.00      0.4990      0.4990
     72.00      0.4741      0.4741
     73.00      0.4490      0.4490
     74.00      0.4236      0.4236
     75.00      0.3979      0.3979
     76.00      0.3721      0.3721
     77.00      0.3461      0.3461
     78.00      0.3199      0.3199
     79.00      0.2934      0.2934
     80.00      0.2667      0.2667
     81.00      0.2400      0.2400
     82.00      0.2133      0.2133
     83.00      0.1865      0.1865
     84.00      0.1597      0.1597
     85.00      0.1329      0.1329
     86.00      0.1062      0.1062
     87.00      0.0795      0.0795
     88.00      0.0519      0.0519
     89.00      0.0244      0.0244
     90.00      0.0000      0.0000
     91.00     -0.0200     -0.0200
     92.00     -0.0378     -0.0378
     93.00     -0.0557     -0.0557
     94.00     -0.0743     -0.0743
     95.00     -0.0930     -0.0930
     96.00     -0.1118     -0.1118
     97.00     -0.1305     -0.1305
     98.00     -0.1493     -0.1493
     99.00     -0.1680     -0.1680
    100.00     -0.1867     -0.1867
    101.00     -0.2054     -0.2054
    102.00     -0.2239     -0.2239
    103.00     -0.2423     -0.2423
    104.00     -0.2605     -0.2605
    105.00     -0.2786     -0.2786
    106.00     -0.2965     -0.2965
    107.00     -0.3143     -0.3143
    108.00     -0.3319     -0.3319
    109.00     -0.3493     -0.3493
    110.00     -0.3666     -0.3666
    111.00     -0.3835     -0.3835
    112.00     -0.4000     -0.4000
    113.00     -0.4161     -0.4161
    114.00     -0.4319     -0.4319
    115.00     -0.4474     -0.4474
    116.00     -0.4626     -0.4626
    117.00     -0.4775     -0.4775
    118.00     -0.4922     -0.4922
    119.00     -0.5065     -0.5065
    120.00     -0.5205     -0.5205
    121.00     -0.5342     -0.5342
    122.00     -0.5476     -0.5476
    123.00     -0.5605     -0.5605
    124.00     -0.5728     -0.5728
    125.00     -0.5845     -0.5845
    126.00     -0.5960     -0.5960
    127.00     -0.6072     -0.6072
    128.00     -0.6181     -0.6181
    129.00     -0.6286     -0.6286
    130.00     -0.6387     -0.6387
    131.00     -0.6485     -0.6485
    132.00     -0.6579     -0.6579
    133.00     -0.6668     -0.6668
    134.00     -0.6753     -0.6753
    135.00     -0.6835     -0.6835
    136.00     -0.6914     -0.6914
    137.00     -0.6989     -0.6989
    138.00     -0.7062     -0.7062
    139.00     -0.7134     -0.7134
    140.00     -0.7204     -0.7204
    141.00     -0.7272     -0.7272
    142.00     -0.7339     -0.7339
    143.00     -0.7404     -0.7404
    144.00     -0.7468     -0.7468
    145.00     -0.7547     -0.7547
    146.00     -0.7625     -0.7625
    147.00     -0.7661     -0.7661
    148.00     -0.7592     -0.7592
    149.00     -0.7430     -0.7430
    150.00     -0.7243     -0.7243
    151.00     -0.7030     -0.7030
    152.00     -0.6774     -0.6774
    153.00     -0.6518     -0.6518
    154.00     -0.6277     -0.6277
    155.00     -0.6035     -0.6035
    156.00     -0.5794     -0.5794
    157.00     -0.5553     -0.5553
    158.00     -0.5311     -0.5311
    159.00     -0.5070     -0.5070
    160.00     -0.4828     -0.4828
    161.00     -0.4587     -0.4587
    162.00     -0.4346     -0.4346
    163.00     -0.4104     -0.4104
    164.00     -0.3863     -0.3863
    165.00     -0.3621     -0.3621
    166.00     -0.3380     -0.3380
    167.00     -0.3138     -0.3138
    168.00     -0.2897     -0.2897
    169.00     -0.2656     -0.2656
    170.00     -0.2414     -0.2414
    171.00     -0.2173     -0.2173
    172.00     -0.1931     -0.1931
    173.00     -0.1690     -0.1690
    174.00     -0.1449     -0.1449
    175.00     -0.1207     -0.1207
    176.00     -0.0966     -0.0966
    177.00     -0.0724     -0.0724
    178.00     -0.0483     -0.0483
    179.00     -0.0241     -0.0241
    180.00      0.0000      0.0000
                0.0000      1.0000
   -180.00      0.0191      0.0191
   -179.00      0.0194      0.0194
   -178.00      0.0199      0.0199
   -177.00      0.0205      0.0205
   -176.00      0.0214      0.0214
   -175.00      0.0227      0.0227
   -174.00      0.0241      0.0241
   -173.00      0.0257      0.0257
   -172.00      0.0275      0.0275
   -171.00      0.0300      0.0300
   -170.00      0.0349      0.0349
   -169.00      0.0424      0.0424
   -168.00      0.0511      0.0511
   -167.00      0.0614      0.0614
   -166.00      0.0738      0.0738
   -165.00      0.0869      0.0869
   -164.00      0.1004      0.1004
   -163.00      0.1147      0.1147
   -162.00      0.1299      0.1299
   -161.00      0.1458      0.1458
   -160.00      0.1627      0.1627
   -159.00      0.1802      0.1802
   -158.00      0.1983      0.1983
   -157.00      0.2172      0.2172
   -156.00      0.2367      0.2367
   -155.00      0.2567      0.2567
   -154.00      0.2773      0.2773
   -153.00      0.2984      0.2984
   -152.00      0.3201      0.3201
   -151.00      0.3423      0.3423
   -150.00      0.3650      0.3650
   -149.00      0.3884      0.3884
   -148.00      0.4122      0.4122
   -147.00      0.4363      0.4363
   -146.00      0.4606      0.4606
   -145.00      0.4852      0.4852
   -144.00      0.5101      0.5101
   -143.00      0.5355      0.5355
   -142.00      0.5613      0.5613
   -141.00      0.5872      0.5872
   -140.00      0.6131      0.6131
   -139.00      0.6393      0.6393
   -138.00      0.6655      0.6655
   -137.00      0.6918      0.6918
   -136.00      0.7182      0.7182
   -135.00      0.7446      0.7446
   -134.00      0.7711      0.7711
   -133.00      0.7976      0.7976
   -132.00      0.8239      0.8239
   -131.00      0.8501      0.8501
   -130.00      0.8761      0.8761
   -129.00      0.9019      0.9019
   -128.00      0.9274      0.9274
   -127.00      0.9527      0.9527
   -126.00      0.9778      0.9778
   -125.00      1.0028      1.0028
   -124.00      1.0276      1.0276
   -123.00      1.0518      1.0518
   -122.00      1.0755      1.0755
   -121.00      1.0987      1.0987
   -120.00      1.1215      1.1215
   -119.00      1.1438      1.1438
   -118.00      1.1657      1.1657
   -117.00      1.1872      1.1872
   -116.00      1.2082      1.2082
   -115.00      1.2288      1.2288
   -114.00      1.2487      1.2487
   -113.00      1.2682      1.2682
   -112.00      1.2871      1.2871
   -111.00      1.3050      1.3050
   -110.00      1.3220      1.3220
   -109.00      1.3382      1.3382
   -108.00      1.3537      1.3537
   -107.00      1.3686      1.3686
   -106.00      1.3829      1.3829
   -105.00      1.3965      1.3965
   -104.00      1.4096      1.4096
   -103.00      1.4220      1.4220
   -102.00      1.4334      1.4334
   -101.00      1.4437      1.4437
   -100.00      1.4531      1.4531
    -99.00      1.4614      1.4614
    -98.00      1.4688      1.4688
    -97.00      1.4755      1.4755
    -96.00      1.4812      1.4812
    -95.00      1.4862      1.4862
    -94.00      1.4907      1.4907
    -93.00      1.4941      1.4941
    -92.00      1.4968      1.4968
    -91.00      1.4991      1.4991
    -90.00      1.5000      1.5000
    -89.00      1.4991      1.4991
    -88.00      1.4968      1.4968
    -87.00      1.4941      1.4941
    -86.00      1.4907      1.4907
    -85.00      1.4862      1.4862
    -84.00      1.4812      1.4812
    -83.00      1.4755      1.4755
    -82.00      1.4688      1.4688
    -81.00      1.4614      1.4614
    -80.00      1.4531      1.4531
    -79.00      1.4437      1.4437
    -78.00      1.4334      1.4334
    -77.00      1.4220      1.4220
    -76.00      1.4096      1.4096
    -75.00      1.3965      1.3965
    -74.00      1.3829      1.3829
    -73.00      1.3686      1.3686
    -72.00      1.3537      1.3537
    -71.00      1.3382      1.3382
    -70.00      1.3220      1.3220
    -69.00      1.3050      1.3050
    -68.00      1.2871      1.2871
    -67.00      1.2682      1.2682
    -66.00      1.2487      1.2487
    -65.00      1.2288      1.2288
    -64.00      1.2082      1.2082
    -63.00      1.1872      1.1872
    -62.00      1.1657      1.1657
    -61.00      1.1438      1.1438
    -60.00      1.1215      1.1215
    -59.00      1.0987      1.0987
    -58.00      1.0755      1.0755
    -57.00      1.0518      1.0518
    -56.00      1.0276      1.0276
    -55.00      1.0028      1.0028
    -54.00      0.9778      0.9778
    -53.00      0.9527      0.9527
    -52.00      0.9274      0.9274
    -51.00      0.9019      0.9019
    -50.00      0.8761      0.8761
    -49.00      0.8501      0.8501
    -48.00      0.8239      0.8239
    -47.00      0.7976      0.7976
    -46.00      0.7711      0.7711
    -45.00      0.7446      0.7446
    -44.00      0.7182      0.7182
    -43.00      0.6918      0.6918
    -42.00      0.6655      0.6655
    -41.00      0.6393      0.6393
    -40.00      0.6131      0.6131
    -39.00      0.5872      0.5872
    -38.00      0.5613      0.5613
    -37.00      0.5355      0.5355
    -36.00      0.5101      0.5101
    -35.00      0.4861      0.4861
    -34.00      0.4624      0.4624
    -33.00      0.4363      0.4363
    -32.00      0.4059      0.4059
    -31.00      0.3723      0.3723
    -30.00      0.3369      0.3369
    -29.00      0.2992      0.2992
    -28.00      0.2622      0.2622
    -27.00      0.2318      0.2318
    -26.00      0.2024      0.2024
    -25.00      0.1731      0.1731
    -24.00      0.1437      0.1437
    -23.00      0.1293      0.1293
    -22.00      0.1154      0.1154
    -21.00      0.1014      0.1014
    -20.00      0.0880      0.0880
    -19.00      0.0781      0.0781
    -18.00      0.0689      0.0689
    -17.00      0.0608      0.0608
    -16.00      0.0529      0.0529
    -15.00      0.0459      0.0459
    -14.00      0.0392      0.0392
    -13.00      0.0327      0.0327
    -12.00      0.0264      0.0264
    -11.00      0.0214      0.0214
    -10.00      0.0165      0.0165
     -9.00      0.0136      0.0136
     -8.00      0.0110      0.0110
     -7.00      0.0098      0.0098
     -6.00      0.0089      0.0089
     -5.00      0.0080      0.0080
     -4.00      0.0074      0.0074
     -3.00      0.0072      0.0072
     -2.00      0.0070      0.0070
     -1.00      0.0070      0.0070
      0.00      0.0071      0.0071
      1.00      0.0072      0.0072
      2.00      0.0074      0.0074
      3.00      0.0076      0.0076
      4.00      0.0079      0.0079
      5.00      0.0084      0.0084
      6.00      0.0091      0.0091
      7.00      0.0099      0.0099
      8.00      0.0111      0.0111
      9.00      0.0124      0.0124
     10.00      0.0137      0.0137
     11.00      0.0153      0.0153
     12.00      0.0172      0.0172
     13.00      0.0197      0.0197
     14.00      0.0236      0.0236
     15.00      0.0297      0.0297
     16.00      0.0399      0.0399
     17.00      0.0557      0.0557
     18.00      0.0717      0.0717
     19.00      0.0897      0.0897
     20.00      0.1080      0.1080
     21.00      0.1277      0.1277
     22.00      0.1479      0.1479
     23.00      0.1665      0.1665
     24.00      0.1859      0.1859
     25.00      0.2095      0.2095
     26.00      0.2333      0.2333
     27.00      0.2570      0.2570
     28.00      0.2814      0.2814
     29.00      0.3129      0.3129
     30.00      0.3461      0.3461
     31.00      0.3778      0.3778
     32.00      0.4081      0.4081
     33.00      0.4363      0.4363
     34.00      0.4619      0.4619
     35.00      0.4858      0.4858
     36.00      0.5101      0.5101
     37.00      0.5355      0.5355
     38.00      0.5613      0.5613
     39.00      0.5872      0.5872
     40.00      0.6131      0.6131
     41.00      0.6393      0.6393
     42.00      0.6655      0.6655
     43.00      0.6918      0.6918
     44.00      0.7182      0.7182
     45.00      0.7446      0.7446
     46.00      0.7711      0.7711
     47.00      0.7976      0.7976
     48.00      0.8239      0.8239
     49.00      0.8501      0.8501
     50.00      0.8761      0.8761
     51.00      0.9019      0.9019
     52.00      0.9274      0.9274
     53.00      0.9527      0.9527
     54.00      0.9778      0.9778
     55.00      1.0028      1.0028
     56.00      1.0276      1.0276
     57.00      1.0518      1.0518
     58.00      1.0755      1.0755
     59.00      1.0987      1.0987
     60.00      1.1215      1.1215
     61.00      1.1438      1.1438
     62.00      1.1657      1.1657
     63.00      1.1872      1.1872
     64.00      1.2082      1.2082
     65.00      1.2288      1.2288
     66.00      1.2487      1.2487
     67.00      1.2682      1.2682
     68.00      1.2871      1.2871
     69.00      1.3050      1.3050
     70.00      1.3220      1.3220
     71.00      1.3382      1.3382
     72.00      1.3537      1.3537
     73.00      1.3686      1.3686
     74.00      1.3829      1.3829
     75.00      1.3965      1.3965
     76.00      1.4096      1.4096
     77.00      1.4220      1.4220
     78.00      1.4334      1.4334
     79.00      1.4437      1.4437
     80.00      1.4531      1.4531
     81.00      1.4614      1.4614
     82.00      1.4688      1.4688
     83.00      1.4755      1.4755
     84.00      1.4812      1.4812
     85.00      1.4862      1.4862
     86.00      1.4907      1.4907
     87.00      1.4941      1.4941
     88.00      1.4968      1.4968
     89.00      1.4991      1.4991
     90.00      1.5000      1.5000
     91.00      1.4991      1.4991
     92.00      1.4968      1.4968
     93.00      1.4941      1.4941
     94.00      1.4907      1.4907
     95.00      1.4862      1.4862
     96.00      1.4812      1.4812
     97.00      1.4755      1.4755
     98.00      1.4688      1.4688
     99.00      1.4614      1.4614
    100.00      1.4531      1.4531
    101.00      1.4437      1.4437
    102.00      1.4334      1.4334
    103.00      1.4220      1.4220
    104.00      1.4096      1.4096
    105.00      1.3965      1.3965
    106.00      1.3829      1.3829
    107.00      1.3686      1.3686
    108.00      1.3537      1.3537
    109.00      1.3382      1.3382
    110.00      1.3220      1.3220
    111.00      1.3050      1.3050
    112.00      1.2871      1.2871
    113.00      1.2682      1.2682
    114.00      1.2487      1.2487
    115.00      1.2288      1.2288
    116.00      1.2082      1.2082
    117.00      1.1872      1.1872
    118.00      1.1657      1.1657
    119.00      1.1438      1.1438
    120.00      1.1215      1.1215
    121.00      1.0987      1.0987
    122.00      1.0755      1.0755
    123.00      1.0518      1.0518
    124.00      1.0276      1.0276
    125.00      1.0028      1.0028
    126.00      0.9778      0.9778
    127.00      0.9527      0.9527
    128.00      0.9274      0.9274
    129.00      0.9019      0.9019
    130.00      0.8761      0.8761
    131.00      0.8501      0.8501
    132.00      0.8239      0.8239
    133.00      0.7976      0.7976
    134.00      0.7711      0.7711
    135.00      0.7446      0.7446
    136.00      0.7182      0.7182
    137.00      0.6918      0.6918
    138.00      0.6655      0.6655
    139.00      0.6393      0.6393
    140.00      0.6131      0.6131
    141.00      0.5872      0.5872
    142.00      0.5613      0.5613
    143.00      0.5355      0.5355
    144.00      0.5101      0.5101
    145.00      0.4852      0.4852
    146.00      0.4606      0.4606
    147.00      0.4363      0.4363
    148.00      0.4122      0.4122
    149.00      0.3884      0.3884
    150.00      0.3650      0.3650
    151.00      0.3423      0.3423
    152.00      0.3201      0.3201
    153.00      0.2984      0.2984
    154.00      0.2773      0.2773
    155.00      0.2567      0.2567
    156.00      0.2367      0.2367
    157.00      0.2172      0.2172
    158.00      0.1983      0.1983
    159.00      0.1802      0.1802
    160.00      0.1627      0.1627
    161.00      0.1458      0.1458
    162.00      0.1299      0.1299
    163.00      0.1147      0.1147
    164.00      0.1004      0.1004
    165.00      0.0869      0.0869
    166.00      0.0738      0.0738
    167.00      0.0614      0.0614
    168.00      0.0511      0.0511
    169.00      0.0424      0.0424
    170.00      0.0349      0.0349
    171.00      0.0300      0.0300
    172.00      0.0275      0.0275
    173.00      0.0257      0.0257
    174.00      0.0241      0.0241
    175.00      0.0227      0.0227
    176.00      0.0214      0.0214
    177.00      0.0205      0.0205
    178.00      0.0199      0.0199
    179.00      0.0194      0.0194
    180.00      0.0191      0.0191
                0.0000      1.0000
   -180.00      0.0000      0.0000
   -179.00      0.0400      0.0400
   -178.00      0.0800      0.0800
   -177.00      0.1200      0.1200
   -176.00      0.1600      0.1600
   -175.00      0.2000      0.2000
   -174.00      0.2400      0.2400
   -173.00      0.2853      0.2853
   -172.00      0.3306      0.3306
   -171.00      0.3600      0.3600
   -170.00      0.3750      0.3750
   -169.00      0.3860      0.3860
   -168.00      0.3902      0.3902
   -167.00      0.3875      0.3875
   -166.00      0.3815      0.3815
   -165.00      0.3756      0.3756
   -164.00      0.3699      0.3699
   -163.00      0.3642      0.3642
   -162.00      0.3609      0.3609
   -161.00      0.3597      0.3597
   -160.00      0.3590      0.3590
   -159.00      0.3587      0.3587
   -158.00      0.3628      0.3628
   -157.00      0.3720      0.3720
   -156.00      0.3812      0.3812
   -155.00      0.3888      0.3888
   -154.00      0.3964      0.3964
   -153.00      0.4038      0.4038
   -152.00      0.4120      0.4120
   -151.00      0.4200      0.4200
   -150.00      0.4247      0.4247
   -149.00      0.4263      0.4263
   -148.00      0.4274      0.4274
   -147.00      0.4282      0.4282
   -146.00      0.4289      0.4289
   -145.00      0.4295      0.4295
   -144.00      0.4301      0.4301
   -143.00      0.4307      0.4307
   -142.00      0.4314      0.4314
   -141.00      0.4321      0.4321
   -140.00      0.4330      0.4330
   -139.00      0.4340      0.4340
   -138.00      0.4351      0.4351
   -137.00      0.4362      0.4362
   -136.00      0.4373      0.4373
   -135.00      0.4384      0.4384
   -134.00      0.4395      0.4395
   -133.00      0.4405      0.4405
   -132.00      0.4417      0.4417
   -131.00      0.4431      0.4431
   -130.00      0.4446      0.4446
   -129.00      0.4462      0.4462
   -128.00      0.4478      0.4478
   -127.00      0.4495      0.4495
   -126.00      0.4512      0.4512
   -125.00      0.4530      0.4530
   -124.00      0.4548      0.4548
   -123.00      0.4566      0.4566
   -122.00      0.4584      0.4584
   -121.00      0.4601      0.4601
   -120.00      0.4617      0.4617
   -119.00      0.4632      0.4632
   -118.00      0.4646      0.4646
   -117.00      0.4660      0.4660
   -116.00      0.4673      0.4673
   -115.00      0.4686      0.4686
   -114.00      0.4698      0.4698
   -113.00      0.4712      0.4712
   -112.00      0.4726      0.4726
   -111.00      0.4735      0.4735
   -110.00      0.4740      0.4740
   -109.00      0.4743      0.4743
   -108.00      0.4745      0.4745
   -107.00      0.4746      0.4746
   -106.00      0.4747      0.4747
   -105.00      0.4747      0.4747
   -104.00      0.4747      0.4747
   -103.00      0.4746      0.4746
   -102.00      0.4744      0.4744
   -101.00      0.4740      0.4740
   -100.00      0.4733      0.4733
    -99.00      0.4724      0.4724
    -98.00      0.4712      0.4712
    -97.00      0.4697      0.4697
    -96.00      0.4681      0.4681
    -95.00      0.4666      0.4666
    -94.00      0.4649      0.4649
    -93.00      0.4633      0.4633
    -92.00      0.4618      0.4618
    -91.00      0.4603      0.4603
    -90.00      0.4584      0.4584
    -89.00      0.4553      0.4553
    -88.00      0.4514      0.4514
    -87.00      0.4474      0.4474
    -86.00      0.4438      0.4438
    -85.00      0.4402      0.4402
    -84.00      0.4365      0.4365
    -83.00      0.4328      0.4328
    -82.00      0.4290      0.4290
    -81.00      0.4251      0.4251
    -80.00      0.4209      0.4209
    -79.00      0.4165      0.4165
    -78.00      0.4120      0.4120
    -77.00      0.4073      0.4073
    -76.00      0.4025      0.4025
    -75.00      0.3976      0.3976