IEA-15-240-RWT_AeroDyn15_Polar_27; 2 361 2 361 2 361
                0.0000      1.0000
   -180.00      0.0000      0.0000
   -179.00      0.0270      0.0270
   -178.00      0.0539      0.0539
   -177.00      0.0809      0.0809
   -176.00      0.1079      0.1079
   -175.00      0.1349      0.1349
   -174.00      0.1618      0.1618
   -173.00      0.1888      0.1888
   -172.00      0.2158      0.2158
   -171.00      0.2428      0.2428
   -170.00      0.2697      0.2697
   -169.00      0.2967      0.2967
   -168.00      0.3237      0.3237
   -167.00      0.3506      0.3506
   -166.00      0.3776      0.3776
   -165.00      0.4046      0.4046
   -164.00      0.4316      0.4316
   -163.00      0.4585      0.4585
   -162.00      0.4855      0.4855
   -161.00      0.5125      0.5125
   -160.00      0.5395      0.5395
   -159.00      0.5664      0.5664
   -158.00      0.5934      0.5934
   -157.00      0.6204      0.6204
   -156.00      0.6473      0.6473
   -155.00      0.6743      0.6743
   -154.00      0.7013      0.7013
   -153.00      0.7283      0.7283
   -152.00      0.7572      0.7572
   -151.00      0.7860      0.7860
   -150.00      0.8092      0.8092
   -149.00      0.8281      0.8281
   -148.00      0.8441      0.8441
   -147.00      0.8509      0.8509
   -146.00      0.8439      0.8439
   -145.00      0.8288      0.8288
   -144.00      0.8140      0.8140
   -143.00      0.8025      0.8025
   -142.00      0.7913      0.7913
   -141.00      0.7801      0.7801
   -140.00      0.7689      0.7689
   -139.00      0.7577      0.7577
   -138.00      0.7465      0.7465
   -137.00      0.7354      0.7354
   -136.00      0.7242      0.7242
   -135.00      0.7128      0.7128
   -134.00      0.7013      0.7013
   -133.00      0.6896      0.6896
   -132.00      0.6777      0.6777
   -131.00      0.6655      0.6655
   -130.00      0.6530      0.6530
   -129.00      0.6404      0.6404
   -128.00      0.6277      0.6277
   -127.00      0.6148      0.6148
   -126.00      0.6017      0.6017
   -125.00      0.5884      0.5884
   -124.00      0.5749      0.5749
   -123.00      0.5610      0.5610
   -122.00      0.5468      0.5468
   -121.00      0.5321      0.5321
   -120.00      0.5172      0.5172
   -119.00      0.5021      0.5021
   -118.00      0.4868      0.4868
   -117.00      0.4713      0.4713
   -116.00      0.4555      0.4555
   -115.00      0.4396      0.4396
   -114.00      0.4234      0.4234
   -113.00      0.4070      0.4070
   -112.00      0.3904      0.3904
   -111.00      0.3736      0.3736
   -110.00      0.3565      0.3565
   -109.00      0.3391      0.3391
   -108.00      0.3217      0.3217
   -107.00      0.3042      0.3042
   -106.00      0.2865      0.2865
   -105.00      0.2688      0.2688
   -104.00      0.2509      0.2509
   -103.00      0.2330      0.2330
   -102.00      0.2150      0.2150
   -101.00      0.1969      0.1969
   -100.00      0.1788      0.1788
    -99.00      0.1607      0.1607
    -98.00      0.1426      0.1426
    -97.00      0.1245      0.1245
    -96.00      0.1065      0.1065
    -95.00      0.0885      0.0885
    -94.00      0.0707      0.0707
    -93.00      0.0529      0.0529
    -92.00      0.0352      0.0352
    -91.00      0.0176      0.0176
    -90.00     -0.0000     -0.0000
    -89.00     -0.0176     -0.0176
    -88.00     -0.0352     -0.0352
    -87.00     -0.0529     -0.0529
    -86.00     -0.0707     -0.0707
    -85.00     -0.0885     -0.0885
    -84.00     -0.1065     -0.1065
    -83.00     -0.1245     -0.1245
    -82.00     -0.1426     -0.1426
    -81.00     -0.1607     -0.1607
    -80.00     -0.1788     -0.1788
    -79.00     -0.1969     -0.1969
    -78.00     -0.2150     -0.2150
    -77.00     -0.2330     -0.2330
    -76.00     -0.2509     -0.2509
    -75.00     -0.2688     -0.2688
    -74.00     -0.2865     -0.2865
    -73.00     -0.3042     -0.3042
    -72.00     -0.3217     -0.3217
    -71.00     -0.3391     -0.3391
    -70.00     -0.3565     -0.3565
    -69.00     -0.3736     -0.3736
    -68.00     -0.3904     -0.3904
    -67.00     -0.4070     -0.4070
    -66.00     -0.4234     -0.4234
    -65.00     -0.4396     -0.4396
    -64.00     -0.4555     -0.4555
    -63.00     -0.4713     -0.4713
    -62.00     -0.4868     -0.4868
    -61.00     -0.5021     -0.5021
    -60.00     -0.5172     -0.5172
    -59.00     -0.5321     -0.5321
    -58.00     -0.5468     -0.5468
    -57.00     -0.5610     -0.5610
    -56.00     -0.5749     -0.5749
    -55.00     -0.5884     -0.5884
    -54.00     -0.6017     -0.6017
    -53.00     -0.6148     -0.6148
    -52.00     -0.6277     -0.6277
    -51.00     -0.6404     -0.6404
    -50.00     -0.6530     -0.6530
    -49.00     -0.6655     -0.6655
    -48.00     -0.6777     -0.6777
    -47.00     -0.6912     -0.6912
    -46.00     -0.7044     -0.7044
    -45.00     -0.7128     -0.7128
    -44.00     -0.7162     -0.7162
    -43.00     -0.7184     -0.7184
    -42.00     -0.7211     -0.7211
    -41.00     -0.7248     -0.7248
    -40.00     -0.7293     -0.7293
    -39.00     -0.7341     -0.7341
    -38.00     -0.7395     -0.7395
    -37.00     -0.7456     -0.7456
    -36.00     -0.7524     -0.7524
    -35.00     -0.7592     -0.7592
    -34.00     -0.7670     -0.7670
    -33.00     -0.7786     -0.7786
    -32.00     -0.8065     -0.8065
    -31.00     -0.8527     -0.8527
    -30.00     -0.9050     -0.9050
    -29.00     -0.9642     -0.9642
    -28.00     -1.0174     -1.0174
    -27.00     -1.0211     -1.0211
    -26.00     -1.0193     -1.0193
    -25.00     -1.0178     -1.0178
    -24.00     -1.0188     -1.0188
    -23.00     -1.0206     -1.0206
    -22.00     -1.0224     -1.0224
    -21.00     -1.0243     -1.0243
    -20.00     -1.0255     -1.0255
    -19.00     -1.0231     -1.0231
    -18.00     -1.0200     -1.0200
    -17.00     -1.0144     -1.0144
    -16.00     -1.0093     -1.0093
    -15.00     -1.0379     -1.0379
    -14.00     -1.0620     -1.0620
    -13.00     -1.0740     -1.0740
    -12.00     -1.0759     -1.0759
    -11.00     -1.0061     -1.0061
    -10.00     -0.9268     -0.9268
     -9.00     -0.8108     -0.8108
     -8.00     -0.6947     -0.6947
     -7.00     -0.5646     -0.5646
     -6.00     -0.4324     -0.4324
     -5.00     -0.2965     -0.2965
     -4.00     -0.1601     -0.1601
     -3.00     -0.0261     -0.0261
     -2.00      0.1076      0.1076
     -1.00      0.2399      0.2399
      0.00      0.3711      0.3711
      1.00      0.5008      0.5008
      2.00      0.6293      0.6293
      3.00      0.7566      0.7566
      4.00      0.8828      0.8828
      5.00      1.0071      1.0071
      6.00      1.1289      1.1289
      7.00      1.2491      1.2491
      8.00      1.3661      1.3661
      9.00      1.4791      1.4791
     10.00      1.5877      1.5877
     11.00      1.6872      1.6872
     12.00      1.7769      1.7769
     13.00      1.8520      1.8520
     14.00      1.9009      1.9009
     15.00      1.8918      1.8918
     16.00      1.8613      1.8613
     17.00      1.7746      1.7746
     18.00      1.6849      1.6849
     19.00      1.5902      1.5902
     20.00      1.5001      1.5001
     21.00      1.4442      1.4442
     22.00      1.3933      1.3933
     23.00      1.3424      1.3424
     24.00      1.2930      1.2930
     25.00      1.2760      1.2760
     26.00      1.2645      1.2645
     27.00      1.2512      1.2512
     28.00      1.2393      1.2393
     29.00      1.2171      1.2171
     30.00      1.1939      1.1939
     31.00      1.1724      1.1724
     32.00      1.1522      1.1522
     33.00      1.1345      1.1345
     34.00      1.1196      1.1196
     35.00      1.1065      1.1065
     36.00      1.0945      1.0945
     37.00      1.0834      1.0834
     38.00      1.0733      1.0733
     39.00      1.0638      1.0638
     40.00      1.0548      1.0548
     41.00      1.0464      1.0464
     42.00      1.0386      1.0386
     43.00      1.0322      1.0322
     44.00      1.0262      1.0262
     45.00      1.0183      1.0183
     46.00      1.0049      1.0049
     47.00      0.9867      0.9867
     48.00      0.9681      0.9681
     49.00      0.9507      0.9507
     50.00      0.9329      0.9329
     51.00      0.9148      0.9148
     52.00      0.8967      0.8967
     53.00      0.8783      0.8783
     54.00      0.8596      0.8596
     55.00      0.8406      0.8406
     56.00      0.8213      0.8213
     57.00      0.8015      0.8015
     58.00      0.7811      0.7811
     59.00      0.7601      0.7601
     60.00      0.7389      0.7389
     61.00      0.7173      0.7173
     62.00      0.6954      0.6954
     63.00      0.6732      0.6732
     64.00      0.6507      0.6507
     65.00      0.6280      0.6280
     66.00      0.6049      0.6049
     67.00      0.5815      0.5815
     68.00      0.5577      0.5577
     69.00      0.5337      0.5337
     70.00      0.5093      0.5093
     71.00      0.4845      0.4845
     72.00      0.4596      0.4596
     73.00      0.4345      0.4345
     74.00      0.4093      0.4093
     75.00      0.3840      0.3840
     76.00      0.3585      0.3585
     77.00      0.3329      0.3329
     78.00      0.3072      0.3072
     79.00      0.2813      0.2813
     80.00      0.2554      0.2554
     81.00      0.2295      0.2295
     82.00      0.2037      0.2037
     83.00      0.1779      0.1779
     84.00      0.1521      0.1521
     85.00      0.1265      0.1265
     86.00      0.1009      0.1009
     87.00      0.0755      0.0755
     88.00      0.0493      0.0493
     89.00      0.0232      0.0232
     90.00      0.0000      0.0000
     91.00     -0.0190     -0.0190
     92.00     -0.0359     -0.0359
     93.00     -0.0529     -0.0529
     94.00     -0.0707     -0.0707
     95.00     -0.0885     -0.0885
     96.00     -0.1065     -0.1065
     97.00     -0.1245     -0.1245
     98.00     -0.1426     -0.1426
     99.00     -0.1607     -0.1607
    100.00     -0.1788     -0.1788
    101.00     -0.1969     -0.1969
    102.00     -0.2150     -0.2150
    103.00     -0.2330     -0.2330
    104.00     -0.2509     -0.2509
    105.00     -0.2688     -0.2688
    106.00     -0.2865     -0.2865
    107.00     -0.3042     -0.3042
    108.00     -0.3217     -0.3217
    109.00     -0.3391     -0.3391
    110.00     -0.3565     -0.3565
    111.00     -0.3736     -0.3736
    112.00     -0.3904     -0.3904
    113.00     -0.4070     -0.4070
    114.00     -0.4234     -0.4234
    115.00     -0.4396     -0.4396
    116.00     -0.4555     -0.4555
    117.00     -0.4713     -0.4713
    118.00     -0.4868     -0.4868
    119.00     -0.5021     -0.5021
    120.00     -0.5172     -0.5172
    121.00     -0.5321     -0.5321
    122.00     -0.5468     -0.5468
    123.00     -0.5610     -0.5610
    124.00     -0.5749     -0.5749
    125.00     -0.5884     -0.5884
    126.00     -0.6017     -0.6017
    127.00     -0.6148     -0.6148
    128.00     -0.6277     -0.6277
    129.00     -0.6404     -0.6404
    130.00     -0.6530     -0.6530
    131.00     -0.6655     -0.6655
    132.00     -0.6777     -0.6777
    133.00     -0.6896     -0.6896
    134.00     -0.7013     -0.7013
    135.00     -0.7128     -0.7128
    136.00     -0.7242     -0.7242
    137.00     -0.7354     -0.7354
    138.00     -0.7465     -0.7465
    139.00     -0.7577     -0.7577
    140.00     -0.7689     -0.7689
    141.00     -0.7801     -0.7801
    142.00     -0.7913     -0.7913
    143.00     -0.8025     -0.8025
    144.00     -0.8140     -0.8140
    145.00     -0.8288     -0.8288
    146.00     -0.8439     -0.8439
    147.00     -0.8509     -0.8509
    148.00     -0.8441     -0.8441
    149.00     -0.8281     -0.8281
    150.00     -0.8092     -0.8092
    151.00     -0.7860     -0.7860
    152.00     -0.7572     -0.7572
    153.00     -0.7283     -0.7283
    154.00     -0.7013     -0.7013
    155.00     -0.6743     -0.6743
    156.00     -0.6473     -0.6473
    157.00     -0.6204     -0.6204
    158.00     -0.5934     -0.5934
    159.00     -0.5664     -0.5664
    160.00     -0.5395     -0.5395
    161.00     -0.5125     -0.5125
    162.00     -0.4855     -0.4855
    163.00     -0.4585     -0.4585
    164.00     -0.4316     -0.4316
    165.00     -0.4046     -0.4046
    166.00     -0.3776     -0.3776
    167.00     -0.3506     -0.3506
    168.00     -0.3237     -0.3237
    169.00     -0.2967     -0.2967
    170.00     -0.2697     -0.2697
    171.00     -0.2428     -0.2428
    172.00     -0.2158     -0.2158
    173.00     -0.1888     -0.1888
    174.00     -0.1618     -0.1618
    175.00     -0.1349     -0.1349
    176.00     -0.1079     -0.1079
    177.00     -0.0809     -0.0809
    178.00     -0.0539     -0.0539
    179.00     -0.0270     -0.0270
    180.00     -0.0000     -0.0000
                0.0000      1.0000
   -180.00      0.0147      0.0147
   -179.00      0.0150      0.0150
   -178.00      0.0154      0.0154
   -177.00      0.0160      0.0160
   -176.00      0.0169      0.0169
   -175.00      0.0181      0.0181
   -174.00      0.0195      0.0195
   -173.00      0.0209      0.0209
   -172.00      0.0227      0.0227
   -171.00      0.0250      0.0250
   -170.00      0.0282      0.0282
   -169.00      0.0326      0.0326
   -168.00      0.0383      0.0383
   -167.00      0.0472      0.0472
   -166.00      0.0594      0.0594
   -165.00      0.0723      0.0723
   -164.00      0.0850      0.0850
   -163.00      0.0985      0.0985
   -162.00      0.1126      0.1126
   -161.00      0.1276      0.1276
   -160.00      0.1433      0.1433
   -159.00      0.1596      0.1596
   -158.00      0.1766      0.1766
   -157.00      0.1943      0.1943
   -156.00      0.2125      0.2125
   -155.00      0.2313      0.2313
   -154.00      0.2506      0.2506
   -153.00      0.2704      0.2704
   -152.00      0.2907      0.2907
   -151.00      0.3116      0.3116
   -150.00      0.3329      0.3329
   -149.00      0.3549      0.3549
   -148.00      0.3773      0.3773
   -147.00      0.4000      0.4000
   -146.00      0.4228      0.4228
   -145.00      0.4459      0.4459
   -144.00      0.4693      0.4693
   -143.00      0.4932      0.4932
   -142.00      0.5175      0.5175
   -141.00      0.5419      0.5419
   -140.00      0.5664      0.5664
   -139.00      0.5910      0.5910
   -138.00      0.6157      0.6157
   -137.00      0.6405      0.6405
   -136.00      0.6654      0.6654
   -135.00      0.6903      0.6903
   -134.00      0.7152      0.7152
   -133.00      0.7402      0.7402
   -132.00      0.7651      0.7651
   -131.00      0.7899      0.7899
   -130.00      0.8145      0.8145
   -129.00      0.8389      0.8389
   -128.00      0.8632      0.8632
   -127.00      0.8874      0.8874
   -126.00      0.9113      0.9113
   -125.00      0.9351      0.9351
   -124.00      0.9588      0.9588
   -123.00      0.9819      0.9819
   -122.00      1.0045      1.0045
   -121.00      1.0267      1.0267
   -120.00      1.0485      1.0485
   -119.00      1.0698      1.0698
   -118.00      1.0908      1.0908
   -117.00      1.1113      1.1113
   -116.00      1.1314      1.1314
   -115.00      1.1511      1.1511
   -114.00      1.1702      1.1702
   -113.00      1.1889      1.1889
   -112.00      1.2070      1.2070
   -111.00      1.2243      1.2243
   -110.00      1.2406      1.2406
   -109.00      1.2562      1.2562
   -108.00      1.2711      1.2711
   -107.00      1.2855      1.2855
   -106.00      1.2994      1.2994
   -105.00      1.3125      1.3125
   -104.00      1.3252      1.3252
   -103.00      1.3372      1.3372
   -102.00      1.3483      1.3483
   -101.00      1.3583      1.3583
   -100.00      1.3675      1.3675
    -99.00      1.3757      1.3757
    -98.00      1.3831      1.3831
    -97.00      1.3896      1.3896
    -96.00      1.3954      1.3954
    -95.00      1.4005      1.4005
    -94.00      1.4050      1.4050
    -93.00      1.4086      1.4086
    -92.00      1.4116      1.4116
    -91.00      1.4142      1.4142
    -90.00      1.4152      1.4152
    -89.00      1.4142      1.4142
    -88.00      1.4116      1.4116
    -87.00      1.4086      1.4086
    -86.00      1.4050      1.4050
    -85.00      1.4005      1.4005
    -84.00      1.3954      1.3954
    -83.00      1.3896      1.3896
    -82.00      1.3831      1.3831
    -81.00      1.3757      1.3757
    -80.00      1.3675      1.3675
    -79.00      1.3583      1.3583
    -78.00      1.3483      1.3483
    -77.00      1.3372      1.3372
    -76.00      1.3252      1.3252
    -75.00      1.3125      1.3125
    -74.00      1.2994      1.2994
    -73.00      1.2855      1.2855
    -72.00      1.2711      1.2711
    -71.00      1.2562      1.2562
    -70.00      1.2406      1.2406
    -69.00      1.2243      1.2243
    -68.00      1.2070      1.2070
    -67.00      1.1889      1.1889
    -66.00      1.1702      1.1702
    -65.00      1.1511      1.1511
    -64.00      1.1314      1.1314
    -63.00      1.1113      1.1113
    -62.00      1.0908      1.0908
    -61.00      1.0698      1.0698
    -60.00      1.0485      1.0485
    -59.00      1.0267      1.0267
    -58.00      1.0045      1.0045
    -57.00      0.9819      0.9819
    -56.00      0.9588      0.9588
    -55.00      0.9351      0.9351
    -54.00      0.9113      0.9113
    -53.00      0.8874      0.8874
    -52.00      0.8632      0.8632
    -51.00      0.8389      0.8389
    -50.00      0.8145      0.8145
    -49.00      0.7899      0.7899
    -48.00      0.7651      0.7651
    -47.00      0.7402      0.7402
    -46.00      0.7152      0.7152
    -45.00      0.6903      0.6903
    -44.00      0.6654      0.6654
    -43.00      0.6405      0.6405
    -42.00      0.6157      0.6157
    -41.00      0.5910      0.5910
    -40.00      0.5664      0.5664
    -39.00      0.5419      0.5419
    -38.00      0.5175      0.5175
    -37.00      0.4932      0.4932
    -36.00      0.4693      0.4693
    -35.00      0.4470      0.4470
    -34.00      0.4249      0.4249
    -33.00      0.4000      0.4000
    -32.00      0.3695      0.3695
    -31.00      0.3347      0.3347
    -30.00      0.2979      0.2979
    -29.00      0.2585      0.2585
    -28.00      0.2215      0.2215
    -27.00      0.2042      0.2042
    -26.00      0.1892      0.1892
    -25.00      0.1743      0.1743
    -24.00      0.1596      0.1596
    -23.00      0.1464      0.1464
    -22.00      0.1333      0.1333
    -21.00      0.1202      0.1202
    -20.00      0.1074      0.1074
    -19.00      0.0968      0.0968
    -18.00      0.0866      0.0866
    -17.00      0.0774      0.0774
    -16.00      0.0682      0.0682
    -15.00      0.0578      0.0578
    -14.00      0.0476      0.0476
    -13.00      0.0391      0.0391
    -12.00      0.0312      0.0312
    -11.00      0.0254      0.0254
    -10.00      0.0199      0.0199
     -9.00      0.0169      0.0169
     -8.00      0.0141      0.0141
     -7.00      0.0126      0.0126
     -6.00      0.0113      0.0113
     -5.00      0.0106      0.0106
     -4.00      0.0100      0.0100
     -3.00      0.0098      0.0098
     -2.00      0.0095      0.0095
     -1.00      0.0094      0.0094
      0.00      0.0095      0.0095
      1.00      0.0096      0.0096
      2.00      0.0097      0.0097
      3.00      0.0100      0.0100
      4.00      0.0103      0.0103
      5.00      0.0106      0.0106
      6.00      0.0112      0.0112
      7.00      0.0118      0.0118
      8.00      0.0125      0.0125
      9.00      0.0134      0.0134
     10.00      0.0145      0.0145
     11.00      0.0159      0.0159
     12.00      0.0177      0.0177
     13.00      0.0202      0.0202
     14.00      0.0242      0.0242
     15.00      0.0322      0.0322
     16.00      0.0425      0.0425
     17.00      0.0592      0.0592
     18.00      0.0764      0.0764
     19.00      0.0972      0.0972
     20.00      0.1183      0.1183
     21.00      0.1391      0.1391
     22.00      0.1599      0.1599
     23.00      0.1807      0.1807
     24.00      0.2014      0.2014
     25.00      0.2212      0.2212
     26.00      0.2408      0.2408
     27.00      0.2608      0.2608
     28.00      0.2811      0.2811
     29.00      0.3048      0.3048
     30.00      0.3288      0.3288
     31.00      0.3527      0.3527
     32.00      0.3764      0.3764
     33.00      0.4000      0.4000
     34.00      0.4231      0.4231
     35.00      0.4460      0.4460
     36.00      0.4693      0.4693
     37.00      0.4932      0.4932
     38.00      0.5175      0.5175
     39.00      0.5419      0.5419
     40.00      0.5664      0.5664
     41.00      0.5910      0.5910
     42.00      0.6157      0.6157
     43.00      0.6405      0.6405
     44.00      0.6654      0.6654
     45.00      0.6903      0.6903
     46.00      0.7152      0.7152
     47.00      0.7402      0.7402
     48.00      0.7651      0.7651
     49.00      0.7899      0.7899
     50.00      0.8145      0.8145
     51.00      0.8389      0.8389
     52.00      0.8632      0.8632
     53.00      0.8874      0.8874
     54.00      0.9113      0.9113
     55.00      0.9351      0.9351
     56.00      0.9588      0.9588
     57.00      0.9819      0.9819
     58.00      1.0045      1.0045
     59.00      1.0267      1.0267
     60.00      1.0485      1.0485
     61.00      1.0698      1.0698
     62.00      1.0908      1.0908
     63.00      1.1113      1.1113
     64.00      1.1314      1.1314
     65.00      1.1511      1.1511
     66.00      1.1702      1.1702
     67.00      1.1889      1.1889
     68.00      1.2070      1.2070
     69.00      1.2243      1.2243
     70.00      1.2406      1.2406
     71.00      1.2562      1.2562
     72.00      1.2711      1.2711
     73.00      1.2855      1.2855
     74.00      1.2994      1.2994
     75.00      1.3125      1.3125
     76.00      1.3252      1.3252
     77.00      1.3372      1.3372
     78.00      1.3483      1.3483
     79.00      1.3583      1.3583
     80.00      1.3675      1.3675
     81.00      1.3757      1.3757
     82.00      1.3831      1.3831
     83.00      1.3896      1.3896
     84.00      1.3954      1.3954
     85.00      1.4005      1.4005
     86.00      1.4050      1.4050
     87.00      1.4086      1.4086
     88.00      1.4116      1.4116
     89.00      1.4142      1.4142
     90.00      1.4152      1.4152
     91.00      1.4142      1.4142
     92.00      1.4116      1.4116
     93.00      1.4086      1.4086
     94.00      1.4050      1.4050
     95.00      1.4005      1.4005
     96.00      1.3954      1.3954
     97.00      1.3896      1.3896
     98.00      1.3831      1.3831
     99.00      1.3757      1.3757
    100.00      1.3675      1.3675
    101.00      1.3583      1.3583
    102.00      1.3483      1.3483
    103.00      1.3372      1.3372
    104.00      1.3252      1.3252
    105.00      1.3125      1.3125
    106.00      1.2994      1.2994
    107.00      1.2855      1.2855
    108.00      1.2711      1.2711
    109.00      1.2562      1.2562
    110.00      1.2406      1.2406
    111.00      1.2243      1.2243
    112.00      1.2070      1.2070
    113.00      1.1889      1.1889
    114.00      1.1702      1.1702
    115.00      1.1511      1.1511
    116.00      1.1314      1.1314
    117.00      1.1113      1.1113
    118.00      1.0908      1.0908
    119.00      1.0698      1.0698
    120.00      1.0485      1.0485
    121.00      1.0267      1.0267
    122.00      1.0045      1.0045
    123.00      0.9819      0.9819
    124.00      0.9588      0.9588
    125.00      0.9351      0.9351
    126.00      0.9113      0.9113
    127.00      0.8874      0.8874
    128.00      0.8632      0.8632
    129.00      0.8389      0.8389
    130.00      0.8145      0.8145
    131.00      0.7899      0.7899
    132.00      0.7651      0.7651
    133.00      0.7402      0.7402
    134.00      0.7152      0.7152
    135.00      0.6903      0.6903
    136.00      0.6654      0.6654
    137.00      0.6405      0.6405
    138.00      0.6157      0.6157
    139.00      0.5910      0.5910
    140.00      0.5664      0.5664
    141.00      0.5419      0.5419
    142.00      0.5175      0.5175
    143.00      0.4932      0.4932
    144.00      0.4693      0.4693
    145.00      0.4459      0.4459
    146.00      0.4228      0.4228
    147.00      0.4000      0.4000
    148.00      0.3773      0.3773
    149.00      0.3549      0.3549
    150.00      0.3329      0.3329
    151.00      0.3116      0.3116
    152.00      0.2907      0.2907
    153.00      0.2704      0.2704
    154.00      0.2506      0.2506
    155.00      0.2313      0.2313
    156.00      0.2125      0.2125
    157.00      0.1943      0.1943
    158.00      0.1766      0.1766
    159.00      0.1596      0.1596
    160.00      0.1433      0.1433
    161.00      0.1276      0.1276
    162.00      0.1126      0.1126
    163.00      0.0985      0.0985
    164.00      0.0850      0.0850
    165.00      0.0723      0.0723
    166.00      0.0594      0.0594
    167.00      0.0472      0.0472
    168.00      0.0383      0.0383
    169.00      0.0326      0.0326
    170.00      0.0282      0.0282
    171.00      0.0250      0.0250
    172.00      0.0227      0.0227
    173.00      0.0209      0.0209
    174.00      0.0195      0.0195
    175.00      0.0181      0.0181
    176.00      0.0169      0.0169
    177.00      0.0160      0.0160
    178.00      0.0154      0.0154
    179.00      0.0150      0.0150
    180.00      0.0147      0.0147
                0.0000      1.0000
   -180.00      0.0000      0.0000
   -179.00      0.0400      0.0400
   -178.00      0.0800      0.0800
   -177.00      0.1200      0.1200
   -176.00      0.1600      0.1600
   -175.00      0.2000      0.2000
   -174.00      0.2400      0.2400
   -173.00      0.2846      0.2846
   -172.00      0.3293      0.3293
   -171.00      0.3600      0.3600
   -170.00      0.3783      0.3783
   -169.00      0.3922      0.3922
   -168.00      0.3977      0.3977
   -167.00      0.3971      0.3971
   -166.00      0.3957      0.3957
   -165.00      0.3943      0.3943
   -164.00      0.3930      0.3930
   -163.00      0.3916      0.3916
   -162.00      0.3910      0.3910
   -161.00      0.3917      0.3917
   -160.00      0.3936      0.3936
   -159.00      0.3962      0.3962
   -158.00      0.4016      0.4016
   -157.00      0.4102      0.4102
   -156.00      0.4187      0.4187
   -155.00      0.4263      0.4263
   -154.00      0.4339      0.4339
   -153.00      0.4412      0.4412
   -152.00      0.4496      0.4496
   -151.00      0.4578      0.4578
   -150.00      0.4614      0.4614
   -149.00      0.4609      0.4609
   -148.00      0.4597      0.4597
   -147.00      0.4583      0.4583
   -146.00      0.4567      0.4567
   -145.00      0.4548      0.4548
   -144.00      0.4529      0.4529
   -143.00      0.4510      0.4510
   -142.00      0.4492      0.4492
   -141.00      0.4477      0.4477
   -140.00      0.4463      0.4463
   -139.00      0.4451      0.4451
   -138.00      0.4442      0.4442
   -137.00      0.4436      0.4436
   -136.00      0.4432      0.4432
   -135.00      0.4428      0.4428
   -134.00      0.4422      0.4422
   -133.00      0.4416      0.4416
   -132.00      0.4413      0.4413
   -131.00      0.4414      0.4414
   -130.00      0.4417      0.4417
   -129.00      0.4421      0.4421
   -128.00      0.4426      0.4426
   -127.00      0.4433      0.4433
   -126.00      0.4440      0.4440
   -125.00      0.4449      0.4449
   -124.00      0.4458      0.4458
   -123.00      0.4468      0.4468
   -122.00      0.4477      0.4477
   -121.00      0.4486      0.4486
   -120.00      0.4495      0.4495
   -119.00      0.4503      0.4503
   -118.00      0.4512      0.4512
   -117.00      0.4521      0.4521
   -116.00      0.4529      0.4529
   -115.00      0.4537      0.4537
   -114.00      0.4546      0.4546
   -113.00      0.4556      0.4556
   -112.00      0.4566      0.4566
   -111.00      0.4571      0.4571
   -110.00      0.4573      0.4573
   -109.00      0.4573      0.4573
   -108.00      0.4574      0.4574
   -107.00      0.4573      0.4573
   -106.00      0.4572      0.4572
   -105.00      0.4571      0.4571
   -104.00      0.4569      0.4569
   -103.00      0.4567      0.4567
   -102.00      0.4564      0.4564
   -101.00      0.4558      0.4558
   -100.00      0.4550      0.4550
    -99.00      0.4540      0.4540
    -98.00      0.4528      0.4528
    -97.00      0.4513      0.4513
    -96.00      0.4498      0.4498
    -95.00      0.4482      0.4482
    -94.00      0.4465      0.4465
    -93.00      0.4449      0.4449
    -92.00      0.4434      0.4434
    -91.00      0.4419      0.4419
    -90.00      0.4400      0.4400
    -89.00      0.4371      0.4371
    -88.00      0.4332      0.4332
    -87.00      0.4294      0.4294
    -86.00      0.4259      0.4259
    -85.00      0.4224      0.4224
    -84.00      0.4188      0.4188
    -83.00      0.4152      0.4152
    -82.00      0.4115      0.4115
    -81.00      0.4077      0.4077
    -80.00      0.4037      0.4037
    -79.00      0.3995      0.3995
    -78.00      0.3952      0.3952
    -77.00      0.3907      0.3907
    -76.00      0.3861      0.3861
    -75.00      0.3815      0.3815