IEA-15-240-RWT_AeroDyn15_Polar_11; 2 361 2 361 2 361
                0.0000      1.0000
   -180.00      0.0000      0.0000
   -179.00      0.0324      0.0324
   -178.00      0.0649      0.0649
   -177.00      0.0974      0.0974
   -176.00      0.1298      0.1298
   -175.00      0.1623      0.1623
   -174.00      0.1948      0.1948
   -173.00      0.2273      0.2273
   -172.00      0.2598      0.2598
   -171.00      0.2922      0.2922
   -170.00      0.3247      0.3247
   -169.00      0.3572      0.3572
   -168.00      0.3897      0.3897
   -167.00      0.4221      0.4221
   -166.00      0.4546      0.4546
   -165.00      0.4871      0.4871
   -164.00      0.5196      0.5196
   -163.00      0.5522      0.5522
   -162.00      0.5845      0.5845
   -161.00      0.6167      0.6167
   -160.00      0.6486      0.6486
   -159.00      0.6802      0.6802
   -158.00      0.7110      0.7110
   -157.00      0.7415      0.7415
   -156.00      0.7718      0.7718
   -155.00      0.8020      0.8020
   -154.00      0.8322      0.8322
   -153.00      0.8618      0.8618
   -152.00      0.8935      0.8935
   -151.00      0.9247      0.9247
   -150.00      0.9478      0.9478
   -149.00      0.9641      0.9641
   -148.00      0.9772      0.9772
   -147.00      0.9826      0.9826
   -146.00      0.9708      0.9708
   -145.00      0.9452      0.9452
   -144.00      0.9205      0.9205
   -143.00      0.9016      0.9016
   -142.00      0.8835      0.8835
   -141.00      0.8658      0.8658
   -140.00      0.8482      0.8482
   -139.00      0.8310      0.8310
   -138.00      0.8140      0.8140
   -137.00      0.7972      0.7972
   -136.00      0.7806      0.7806
   -135.00      0.7642      0.7642
   -134.00      0.7480      0.7480
   -133.00      0.7319      0.7319
   -132.00      0.7158      0.7158
   -131.00      0.6998      0.6998
   -130.00      0.6837      0.6837
   -129.00      0.6676      0.6676
   -128.00      0.6514      0.6514
   -127.00      0.6352      0.6352
   -126.00      0.6190      0.6190
   -125.00      0.6027      0.6027
   -124.00      0.5864      0.5864
   -123.00      0.5699      0.5699
   -122.00      0.5533      0.5533
   -121.00      0.5365      0.5365
   -120.00      0.5197      0.5197
   -119.00      0.5028      0.5028
   -118.00      0.4857      0.4857
   -117.00      0.4686      0.4686
   -116.00      0.4514      0.4514
   -115.00      0.4341      0.4341
   -114.00      0.4168      0.4168
   -113.00      0.3993      0.3993
   -112.00      0.3818      0.3818
   -111.00      0.3642      0.3642
   -110.00      0.3465      0.3465
   -109.00      0.3287      0.3287
   -108.00      0.3109      0.3109
   -107.00      0.2931      0.2931
   -106.00      0.2753      0.2753
   -105.00      0.2575      0.2575
   -104.00      0.2397      0.2397
   -103.00      0.2219      0.2219
   -102.00      0.2042      0.2042
   -101.00      0.1865      0.1865
   -100.00      0.1688      0.1688
    -99.00      0.1513      0.1513
    -98.00      0.1340      0.1340
    -97.00      0.1167      0.1167
    -96.00      0.0996      0.0996
    -95.00      0.0826      0.0826
    -94.00      0.0658      0.0658
    -93.00      0.0491      0.0491
    -92.00      0.0326      0.0326
    -91.00      0.0163      0.0163
    -90.00     -0.0000     -0.0000
    -89.00     -0.0163     -0.0163
    -88.00     -0.0326     -0.0326
    -87.00     -0.0491     -0.0491
    -86.00     -0.0658     -0.0658
    -85.00     -0.0826     -0.0826
    -84.00     -0.0996     -0.0996
    -83.00     -0.1167     -0.1167
    -82.00     -0.1340     -0.1340
    -81.00     -0.1513     -0.1513
    -80.00     -0.1688     -0.1688
    -79.00     -0.1865     -0.1865
    -78.00     -0.2042     -0.2042
    -77.00     -0.2219     -0.2219
    -76.00     -0.2397     -0.2397
    -75.00     -0.2575     -0.2575
    -74.00     -0.2753     -0.2753
    -73.00     -0.2931     -0.2931
    -72.00     -0.3109     -0.3109
    -71.00     -0.3287     -0.3287
    -70.00     -0.3465     -0.3465
    -69.00     -0.3642     -0.3642
    -68.00     -0.3818     -0.3818
    -67.00     -0.3993     -0.3993
    -66.00     -0.4168     -0.4168
    -65.00     -0.4341     -0.4341
    -64.00     -0.4514     -0.4514
    -63.00     -0.4686     -0.4686
    -62.00     -0.4857     -0.4857
    -61.00     -0.5028     -0.5028
    -60.00     -0.5197     -0.5197
    -59.00     -0.5365     -0.5365
    -58.00     -0.5533     -0.5533
    -57.00     -0.5699     -0.5699
    -56.00     -0.5864     -0.5864
    -55.00     -0.6027     -0.6027
    -54.00     -0.6190     -0.6190
    -53.00     -0.6352     -0.6352
    -52.00     -0.6514     -0.6514
    -51.00     -0.6676     -0.6676
    -50.00     -0.6837     -0.6837
    -49.00     -0.6998     -0.6998
    -48.00     -0.7158     -0.7158
    -47.00     -0.7309     -0.7309
    -46.00     -0.7461     -0.7461
    -45.00     -0.7642     -0.7642
    -44.00     -0.7895     -0.7895
    -43.00     -0.8204     -0.8204
    -42.00     -0.8515     -0.8515
    -41.00     -0.8810     -0.8810
    -40.00     -0.9107     -0.9107
    -39.00     -0.9408     -0.9408
    -38.00     -0.9710     -0.9710
    -37.00     -1.0016     -1.0016
    -36.00     -1.0330     -1.0330
    -35.00     -1.0654     -1.0654
    -34.00     -1.0986     -1.0986
    -33.00     -1.1326     -1.1326
    -32.00     -1.1681     -1.1681
    -31.00     -1.2044     -1.2044
    -30.00     -1.2392     -1.2392
    -29.00     -1.2715     -1.2715
    -28.00     -1.3018     -1.3018
    -27.00     -1.3041     -1.3041
    -26.00     -1.3038     -1.3038
    -25.00     -1.3036     -1.3036
    -24.00     -1.2929     -1.2929
    -23.00     -1.2800     -1.2800
    -22.00     -1.2675     -1.2675
    -21.00     -1.2513     -1.2513
    -20.00     -1.2291     -1.2291
    -19.00     -1.1871     -1.1871
    -18.00     -1.1457     -1.1457
    -17.00     -1.1016     -1.1016
    -16.00     -1.0571     -1.0571
    -15.00     -1.0166     -1.0166
    -14.00     -0.9760     -0.9760
    -13.00     -0.9379     -0.9379
    -12.00     -0.8997     -0.8997
    -11.00     -0.8594     -0.8594
    -10.00     -0.8221     -0.8221
     -9.00     -0.7312     -0.7312
     -8.00     -0.6343     -0.6343
     -7.00     -0.5103     -0.5103
     -6.00     -0.3823     -0.3823
     -5.00     -0.2504     -0.2504
     -4.00     -0.1180     -0.1180
     -3.00      0.0254      0.0254
     -2.00      0.1676      0.1676
     -1.00      0.3117      0.3117
      0.00      0.4585      0.4585
      1.00      0.6039      0.6039
      2.00      0.7467      0.7467
      3.00      0.8868      0.8868
      4.00      1.0247      1.0247
      5.00      1.1595      1.1595
      6.00      1.2909      1.2909
      7.00      1.4190      1.4190
      8.00      1.5408      1.5408
      9.00      1.6560      1.6560
     10.00      1.7630      1.7630
     11.00      1.8526      1.8526
     12.00      1.9075      1.9075
     13.00      1.9435      1.9435
     14.00      1.9590      1.9590
     15.00      1.9857      1.9857
     16.00      1.9990      1.9990
     17.00      1.9802      1.9802
     18.00      1.9576      1.9576
     19.00      1.9143      1.9143
     20.00      1.8507      1.8507
     21.00      1.8147      1.8147
     22.00      1.7834      1.7834
     23.00      1.7525      1.7525
     24.00      1.7229      1.7229
     25.00      1.7150      1.7150
     26.00      1.6976      1.6976
     27.00      1.6791      1.6791
     28.00      1.6591      1.6591
     29.00      1.6422      1.6422
     30.00      1.6280      1.6280
     31.00      1.6072      1.6072
     32.00      1.5825      1.5825
     33.00      1.5534      1.5534
     34.00      1.5158      1.5158
     35.00      1.4709      1.4709
     36.00      1.4273      1.4273
     37.00      1.3878      1.3878
     38.00      1.3495      1.3495
     39.00      1.3117      1.3117
     40.00      1.2741      1.2741
     41.00      1.2370      1.2370
     42.00      1.2002      1.2002
     43.00      1.1620      1.1620
     44.00      1.1242      1.1242
     45.00      1.0917      1.0917
     46.00      1.0664      1.0664
     47.00      1.0445      1.0445
     48.00      1.0226      1.0226
     49.00      0.9996      0.9996
     50.00      0.9767      0.9767
     51.00      0.9537      0.9537
     52.00      0.9306      0.9306
     53.00      0.9074      0.9074
     54.00      0.8842      0.8842
     55.00      0.8610      0.8610
     56.00      0.8377      0.8377
     57.00      0.8141      0.8141
     58.00      0.7904      0.7904
     59.00      0.7665      0.7665
     60.00      0.7424      0.7424
     61.00      0.7182      0.7182
     62.00      0.6939      0.6939
     63.00      0.6694      0.6694
     64.00      0.6449      0.6449
     65.00      0.6202      0.6202
     66.00      0.5954      0.5954
     67.00      0.5704      0.5704
     68.00      0.5454      0.5454
     69.00      0.5202      0.5202
     70.00      0.4949      0.4949
     71.00      0.4696      0.4696
     72.00      0.4442      0.4442
     73.00      0.4187      0.4187
     74.00      0.3933      0.3933
     75.00      0.3679      0.3679
     76.00      0.3424      0.3424
     77.00      0.3170      0.3170
     78.00      0.2917      0.2917
     79.00      0.2664      0.2664
     80.00      0.2412      0.2412
     81.00      0.2162      0.2162
     82.00      0.1914      0.1914
     83.00      0.1667      0.1667
     84.00      0.1423      0.1423
     85.00      0.1180      0.1180
     86.00      0.0940      0.0940
     87.00      0.0701      0.0701
     88.00      0.0457      0.0457
     89.00      0.0215      0.0215
     90.00      0.0000      0.0000
     91.00     -0.0176     -0.0176
     92.00     -0.0333     -0.0333
     93.00     -0.0491     -0.0491
     94.00     -0.0658     -0.0658
     95.00     -0.0826     -0.0826
     96.00     -0.0996     -0.0996
     97.00     -0.1167     -0.1167
     98.00     -0.1340     -0.1340
     99.00     -0.1513     -0.1513
    100.00     -0.1688     -0.1688
    101.00     -0.1865     -0.1865
    102.00     -0.2042     -0.2042
    103.00     -0.2219     -0.2219
    104.00     -0.2397     -0.2397
    105.00     -0.2575     -0.2575
    106.00     -0.2753     -0.2753
    107.00     -0.2931     -0.2931
    108.00     -0.3109     -0.3109
    109.00     -0.3287     -0.3287
    110.00     -0.3465     -0.3465
    111.00     -0.3642     -0.3642
    112.00     -0.3818     -0.3818
    113.00     -0.3993     -0.3993
    114.00     -0.4168     -0.4168
    115.00     -0.4341     -0.4341
    116.00     -0.4514     -0.4514
    117.00     -0.4686     -0.4686
    118.00     -0.4857     -0.4857
    119.00     -0.5028     -0.5028
    120.00     -0.5197     -0.5197
    121.00     -0.5365     -0.5365
    122.00     -0.5533     -0.5533
    123.00     -0.5699     -0.5699
    124.00     -0.5864     -0.5864
    125.00     -0.6027     -0.6027
    126.00     -0.6190     -0.6190
    127.00     -0.6352     -0.6352
    128.00     -0.6514     -0.6514
    129.00     -0.6676     -0.6676
    130.00     -0.6837     -0.6837
    131.00     -0.6998     -0.6998
    132.00     -0.7158     -0.7158
    133.00     -0.7319     -0.7319
    134.00     -0.7480     -0.7480
    135.00     -0.7642     -0.7642
    136.00     -0.7806     -0.7806
    137.00     -0.7972     -0.7972
    138.00     -0.8140     -0.8140
    139.00     -0.8310     -0.8310
    140.00     -0.8482     -0.8482
    141.00     -0.8658     -0.8658
    142.00     -0.8835     -0.8835
    143.00     -0.9016     -0.9016
    144.00     -0.9205     -0.9205
    145.00     -0.9452     -0.9452
    146.00     -0.9708     -0.9708
    147.00     -0.9826     -0.9826
    148.00     -0.9772     -0.9772
    149.00     -0.9641     -0.9641
    150.00     -0.9478     -0.9478
    151.00     -0.9247     -0.9247
    152.00     -0.8935     -0.8935
    153.00     -0.8618     -0.8618
    154.00     -0.8322     -0.8322
    155.00     -0.8020     -0.8020
    156.00     -0.7718     -0.7718
    157.00     -0.7415     -0.7415
    158.00     -0.7110     -0.7110
    159.00     -0.6802     -0.6802
    160.00     -0.6486     -0.6486
    161.00     -0.6167     -0.6167
    162.00     -0.5845     -0.5845
    163.00     -0.5522     -0.5522
    164.00     -0.5196     -0.5196
    165.00     -0.4871     -0.4871
    166.00     -0.4546     -0.4546
    167.00     -0.4221     -0.4221
    168.00     -0.3897     -0.3897
    169.00     -0.3572     -0.3572
    170.00     -0.3247     -0.3247
    171.00     -0.2922     -0.2922
    172.00     -0.2598     -0.2598
    173.00     -0.2273     -0.2273
    174.00     -0.1948     -0.1948
    175.00     -0.1623     -0.1623
    176.00     -0.1298     -0.1298
    177.00     -0.0974     -0.0974
    178.00     -0.0649     -0.0649
    179.00     -0.0324     -0.0324
    180.00      0.0000      0.0000
                0.0000      1.0000
   -180.00      0.0412      0.0412
   -179.00      0.0414      0.0414
   -178.00      0.0418      0.0418
   -177.00      0.0423      0.0423
   -176.00      0.0430      0.0430
   -175.00      0.0441      0.0441
   -174.00      0.0452      0.0452
   -173.00      0.0465      0.0465
   -172.00      0.0481      0.0481
   -171.00      0.0499      0.0499
   -170.00      0.0519      0.0519
   -169.00      0.0543      0.0543
   -168.00      0.0574      0.0574
   -167.00      0.0624      0.0624
   -166.00      0.0695      0.0695
   -165.00      0.0777      0.0777
   -164.00      0.0879      0.0879
   -163.00      0.1003      0.1003
   -162.00      0.1132      0.1132
   -161.00      0.1264      0.1264
   -160.00      0.1402      0.1402
   -159.00      0.1548      0.1548
   -158.00      0.1703      0.1703
   -157.00      0.1866      0.1866
   -156.00      0.2033      0.2033
   -155.00      0.2205      0.2205
   -154.00      0.2381      0.2381
   -153.00      0.2562      0.2562
   -152.00      0.2747      0.2747
   -151.00      0.2937      0.2937
   -150.00      0.3132      0.3132
   -149.00      0.3332      0.3332
   -148.00      0.3538      0.3538
   -147.00      0.3746      0.3746
   -146.00      0.3955      0.3955
   -145.00      0.4167      0.4167
   -144.00      0.4382      0.4382
   -143.00      0.4601      0.4601
   -142.00      0.4822      0.4822
   -141.00      0.5045      0.5045
   -140.00      0.5269      0.5269
   -139.00      0.5494      0.5494
   -138.00      0.5720      0.5720
   -137.00      0.5946      0.5946
   -136.00      0.6174      0.6174
   -135.00      0.6401      0.6401
   -134.00      0.6629      0.6629
   -133.00      0.6858      0.6858
   -132.00      0.7085      0.7085
   -131.00      0.7311      0.7311
   -130.00      0.7536      0.7536
   -129.00      0.7759      0.7759
   -128.00      0.7981      0.7981
   -127.00      0.8201      0.8201
   -126.00      0.8419      0.8419
   -125.00      0.8636      0.8636
   -124.00      0.8852      0.8852
   -123.00      0.9063      0.9063
   -122.00      0.9270      0.9270
   -121.00      0.9472      0.9472
   -120.00      0.9671      0.9671
   -119.00      0.9865      0.9865
   -118.00      1.0056      1.0056
   -117.00      1.0242      1.0242
   -116.00      1.0425      1.0425
   -115.00      1.0605      1.0605
   -114.00      1.0779      1.0779
   -113.00      1.0949      1.0949
   -112.00      1.1114      1.1114
   -111.00      1.1272      1.1272
   -110.00      1.1420      1.1420
   -109.00      1.1561      1.1561
   -108.00      1.1697      1.1697
   -107.00      1.1827      1.1827
   -106.00      1.1952      1.1952
   -105.00      1.2072      1.2072
   -104.00      1.2186      1.2186
   -103.00      1.2296      1.2296
   -102.00      1.2396      1.2396
   -101.00      1.2487      1.2487
   -100.00      1.2570      1.2570
    -99.00      1.2644      1.2644
    -98.00      1.2710      1.2710
    -97.00      1.2768      1.2768
    -96.00      1.2819      1.2819
    -95.00      1.2864      1.2864
    -94.00      1.2905      1.2905
    -93.00      1.2936      1.2936
    -92.00      1.2963      1.2963
    -91.00      1.2985      1.2985
    -90.00      1.2994      1.2994
    -89.00      1.2985      1.2985
    -88.00      1.2963      1.2963
    -87.00      1.2936      1.2936
    -86.00      1.2905      1.2905
    -85.00      1.2864      1.2864
    -84.00      1.2819      1.2819
    -83.00      1.2768      1.2768
    -82.00      1.2710      1.2710
    -81.00      1.2644      1.2644
    -80.00      1.2570      1.2570
    -79.00      1.2487      1.2487
    -78.00      1.2396      1.2396
    -77.00      1.2296      1.2296
    -76.00      1.2186      1.2186
    -75.00      1.2072      1.2072
    -74.00      1.1952      1.1952
    -73.00      1.1827      1.1827
    -72.00      1.1697      1.1697
    -71.00      1.1561      1.1561
    -70.00      1.1420      1.1420
    -69.00      1.1272      1.1272
    -68.00      1.1114      1.1114
    -67.00      1.0949      1.0949
    -66.00      1.0779      1.0779
    -65.00      1.0605      1.0605
    -64.00      1.0425      1.0425
    -63.00      1.0242      1.0242
    -62.00      1.0056      1.0056
    -61.00      0.9865      0.9865
    -60.00      0.9671      0.9671
    -59.00      0.9472      0.9472
    -58.00      0.9270      0.9270
    -57.00      0.9063      0.9063
    -56.00      0.8852      0.8852
    -55.00      0.8636      0.8636
    -54.00      0.8419      0.8419
    -53.00      0.8201      0.8201
    -52.00      0.7981      0.7981
    -51.00      0.7759      0.7759
    -50.00      0.7536      0.7536
    -49.00      0.7311      0.7311
    -48.00      0.7085      0.7085
    -47.00      0.6858      0.6858
    -46.00      0.6629      0.6629
    -45.00      0.6401      0.6401
    -44.00      0.6174      0.6174
    -43.00      0.5946      0.5946
    -42.00      0.5720      0.5720
    -41.00      0.5494      0.5494
    -40.00      0.5269      0.5269
    -39.00      0.5045      0.5045
    -38.00      0.4822      0.4822
    -37.00      0.4601      0.4601
    -36.00      0.4382      0.4382
    -35.00      0.4177      0.4177
    -34.00      0.3975      0.3975
    -33.00      0.3746      0.3746
    -32.00      0.3466      0.3466
    -31.00      0.3146      0.3146
    -30.00      0.2804      0.2804
    -29.00      0.2433      0.2433
    -28.00      0.2092      0.2092
    -27.00      0.1941      0.1941
    -26.00      0.1823      0.1823
    -25.00      0.1704      0.1704
    -24.00      0.1584      0.1584
    -23.00      0.1469      0.1469
    -22.00      0.1355      0.1355
    -21.00      0.1241      0.1241
    -20.00      0.1131      0.1131
    -19.00      0.1046      0.1046
    -18.00      0.0963      0.0963
    -17.00      0.0882      0.0882
    -16.00      0.0801      0.0801
    -15.00      0.0725      0.0725
    -14.00      0.0650      0.0650
    -13.00      0.0580      0.0580
    -12.00      0.0511      0.0511
    -11.00      0.0449      0.0449
    -10.00      0.0388      0.0388
     -9.00      0.0340      0.0340
     -8.00      0.0294      0.0294
     -7.00      0.0263      0.0263
     -6.00      0.0234      0.0234
     -5.00      0.0214      0.0214
     -4.00      0.0196      0.0196
     -3.00      0.0187      0.0187
     -2.00      0.0179      0.0179
     -1.00      0.0176      0.0176
      0.00      0.0174      0.0174
      1.00      0.0174      0.0174
      2.00      0.0176      0.0176
      3.00      0.0179      0.0179
      4.00      0.0183      0.0183
      5.00      0.0188      0.0188
      6.00      0.0195      0.0195
      7.00      0.0204      0.0204
      8.00      0.0215      0.0215
      9.00      0.0231      0.0231
     10.00      0.0252      0.0252
     11.00      0.0291      0.0291
     12.00      0.0353      0.0353
     13.00      0.0441      0.0441
     14.00      0.0548      0.0548
     15.00      0.0648      0.0648
     16.00      0.0761      0.0761
     17.00      0.0915      0.0915
     18.00      0.1071      0.1071
     19.00      0.1246      0.1246
     20.00      0.1421      0.1421
     21.00      0.1590      0.1590
     22.00      0.1754      0.1754
     23.00      0.1921      0.1921
     24.00      0.2096      0.2096
     25.00      0.2274      0.2274
     26.00      0.2454      0.2454
     27.00      0.2634      0.2634
     28.00      0.2813      0.2813
     29.00      0.2994      0.2994
     30.00      0.3175      0.3175
     31.00      0.3361      0.3361
     32.00      0.3552      0.3552
     33.00      0.3749      0.3749
     34.00      0.3955      0.3955
     35.00      0.4168      0.4168
     36.00      0.4384      0.4384
     37.00      0.4603      0.4603
     38.00      0.4824      0.4824
     39.00      0.5047      0.5047
     40.00      0.5270      0.5270
     41.00      0.5495      0.5495
     42.00      0.5721      0.5721
     43.00      0.5947      0.5947
     44.00      0.6174      0.6174
     45.00      0.6402      0.6402
     46.00      0.6630      0.6630
     47.00      0.6858      0.6858
     48.00      0.7085      0.7085
     49.00      0.7311      0.7311
     50.00      0.7536      0.7536
     51.00      0.7759      0.7759
     52.00      0.7981      0.7981
     53.00      0.8201      0.8201
     54.00      0.8419      0.8419
     55.00      0.8636      0.8636
     56.00      0.8852      0.8852
     57.00      0.9063      0.9063
     58.00      0.9270      0.9270
     59.00      0.9472      0.9472
     60.00      0.9671      0.9671
     61.00      0.9865      0.9865
     62.00      1.0056      1.0056
     63.00      1.0242      1.0242
     64.00      1.0425      1.0425
     65.00      1.0605      1.0605
     66.00      1.0779      1.0779
     67.00      1.0949      1.0949
     68.00      1.1114      1.1114
     69.00      1.1272      1.1272
     70.00      1.1420      1.1420
     71.00      1.1561      1.1561
     72.00      1.1697      1.1697
     73.00      1.1827      1.1827
     74.00      1.1952      1.1952
     75.00      1.2072      1.2072
     76.00      1.2186      1.2186
     77.00      1.2296      1.2296
     78.00      1.2396      1.2396
     79.00      1.2487      1.2487
     80.00      1.2570      1.2570
     81.00      1.2644      1.2644
     82.00      1.2710      1.2710
     83.00      1.2768      1.2768
     84.00      1.2819      1.2819
     85.00      1.2864      1.2864
     86.00      1.2905      1.2905
     87.00      1.2936      1.2936
     88.00      1.2963      1.2963
     89.00      1.2985      1.2985
     90.00      1.2994      1.2994
     91.00      1.2985      1.2985
     92.00      1.2963      1.2963
     93.00      1.2936      1.2936
     94.00      1.2905      1.2905
     95.00      1.2864      1.2864
     96.00      1.2819      1.2819
     97.00      1.2768      1.2768
     98.00      1.2710      1.2710
     99.00      1.2644      1.2644
    100.00      1.2570      1.2570
    101.00      1.2487      1.2487
    102.00      1.2396      1.2396
    103.00      1.2296      1.2296
    104.00      1.2186      1.2186
    105.00      1.2072      1.2072
    106.00      1.1952      1.1952
    107.00      1.1827      1.1827
    108.00      1.1697      1.1697
    109.00      1.1561      1.1561
    110.00      1.1420      1.1420
    111.00      1.1272      1.1272
    112.00      1.1114      1.1114
    113.00      1.0949      1.0949
    114.00      1.0779      1.0779
    115.00      1.0605      1.0605
    116.00      1.0425      1.0425
    117.00      1.0242      1.0242
    118.00      1.0056      1.0056
    119.00      0.9865      0.9865
    120.00      0.9671      0.9671
    121.00      0.9472      0.9472
    122.00      0.9270      0.9270
    123.00      0.9063      0.9063
    124.00      0.8852      0.8852
    125.00      0.8636      0.8636
    126.00      0.8419      0.8419
    127.00      0.8201      0.8201
    128.00      0.7981      0.7981
    129.00      0.7759      0.7759
    130.00      0.7536      0.7536
    131.00      0.7311      0.7311
    132.00      0.7085      0.7085
    133.00      0.6858      0.6858
    134.00      0.6629      0.6629
    135.00      0.6401      0.6401
    136.00      0.6174      0.6174
    137.00      0.5946      0.5946
    138.00      0.5720      0.5720
    139.00      0.5494      0.5494
    140.00      0.5269      0.5269
    141.00      0.5045      0.5045
    142.00      0.4822      0.4822
    143.00      0.4601      0.4601
    144.00      0.4382      0.4382
    145.00      0.4167      0.4167
    146.00      0.3955      0.3955
    147.00      0.3746      0.3746
    148.00      0.3538      0.3538
    149.00      0.3332      0.3332
    150.00      0.3132      0.3132
    151.00      0.2937      0.2937
    152.00      0.2747      0.2747
    153.00      0.2562      0.2562
    154.00      0.2381      0.2381
    155.00      0.2205      0.2205
    156.00      0.2033      0.2033
    157.00      0.1866      0.1866
    158.00      0.1703      0.1703
    159.00      0.1548      0.1548
    160.00      0.1402      0.1402
    161.00      0.1264      0.1264
    162.00      0.1132      0.1132
    163.00      0.1002      0.1002
    164.00      0.0879      0.0879
    165.00      0.0777      0.0777
    166.00      0.0695      0.0695
    167.00      0.0624      0.0624
    168.00      0.0574      0.0574
    169.00      0.0543      0.0543
    170.00      0.0519      0.0519
    171.00      0.0499      0.0499
    172.00      0.0481      0.0481
    173.00      0.0465      0.0465
    174.00      0.0452      0.0452
    175.00      0.0441      0.0441
    176.00      0.0430      0.0430
    177.00      0.0423      0.0423
    178.00      0.0418      0.0418
    179.00      0.0414      0.0414
    180.00      0.0412      0.0412
                0.0000      1.0000
   -180.00      0.0000      0.0000
   -179.00      0.0397      0.0397
   -178.00      0.0795      0.0795
   -177.00      0.1193      0.1193
   -176.00      0.1590      0.1590
   -175.00      0.1988      0.1988
   -174.00      0.2386      0.2386
   -173.00      0.2824      0.2824
   -172.00      0.3263      0.3263
   -171.00      0.3579      0.3579
   -170.00      0.3779      0.3779
   -169.00      0.3935      0.3935
   -168.00      0.4017      0.4017
   -167.00      0.4043      0.4043
   -166.00      0.4060      0.4060
   -165.00      0.4077      0.4077
   -164.00      0.4096      0.4096
   -163.00      0.4114      0.4114
   -162.00      0.4137      0.4137
   -161.00      0.4167      0.4167
   -160.00      0.4204      0.4204
   -159.00      0.4250      0.4250
   -158.00      0.4312      0.4312
   -157.00      0.4390      0.4390
   -156.00      0.4468      0.4468
   -155.00      0.4542      0.4542
   -154.00      0.4616      0.4616
   -153.00      0.4686      0.4686
   -152.00      0.4764      0.4764
   -151.00      0.4840      0.4840
   -150.00      0.4873      0.4873
   -149.00      0.4852      0.4852
   -148.00      0.4805      0.4805
   -147.00      0.4754      0.4754
   -146.00      0.4705      0.4705
   -145.00      0.4653      0.4653
   -144.00      0.4600      0.4600
   -143.00      0.4548      0.4548
   -142.00      0.4495      0.4495
   -141.00      0.4448      0.4448
   -140.00      0.4406      0.4406
   -139.00      0.4369      0.4369
   -138.00      0.4335      0.4335
   -137.00      0.4306      0.4306
   -136.00      0.4279      0.4279
   -135.00      0.4252      0.4252
   -134.00      0.4223      0.4223
   -133.00      0.4193      0.4193
   -132.00      0.4169      0.4169
   -131.00      0.4152      0.4152
   -130.00      0.4137      0.4137
   -129.00      0.4126      0.4126
   -128.00      0.4117      0.4117
   -127.00      0.4110      0.4110
   -126.00      0.4105      0.4105
   -125.00      0.4101      0.4101
   -124.00      0.4099      0.4099
   -123.00      0.4098      0.4098
   -122.00      0.4096      0.4096
   -121.00      0.4095      0.4095
   -120.00      0.4095      0.4095
   -119.00      0.4096      0.4096
   -118.00      0.4099      0.4099
   -117.00      0.4102      0.4102
   -116.00      0.4106      0.4106
   -115.00      0.4110      0.4110
   -114.00      0.4114      0.4114
   -113.00      0.4119      0.4119
   -112.00      0.4123      0.4123
   -111.00      0.4125      0.4125
   -110.00      0.4125      0.4125
   -109.00      0.4125      0.4125
   -108.00      0.4125      0.4125
   -107.00      0.4124      0.4124
   -106.00      0.4123      0.4123
   -105.00      0.4122      0.4122
   -104.00      0.4120      0.4120
   -103.00      0.4118      0.4118
   -102.00      0.4115      0.4115
   -101.00      0.4111      0.4111
   -100.00      0.4104      0.4104
    -99.00      0.4096      0.4096
    -98.00      0.4086      0.4086
    -97.00      0.4074      0.4074
    -96.00      0.4061      0.4061
    -95.00      0.4049      0.4049
    -94.00      0.4035      0.4035
    -93.00      0.4022      0.4022
    -92.00      0.4010      0.4010
    -91.00      0.3998      0.3998
    -90.00      0.3982      0.3982
    -89.00      0.3957      0.3957
    -88.00      0.3925      0.3925
    -87.00      0.3893      0.3893
    -86.00      0.3864      0.3864
    -85.00      0.3834      0.3834
    -84.00      0.3804      0.3804
    -83.00      0.3774      0.3774
    -82.00      0.3744      0.3744
    -81.00      0.3712      0.3712
    -80.00      0.3678      0.3678
    -79.00      0.3643      0.3643
    -78.00      0.3607      0.3607
    -77.00      0.3570      0.3570
    -76.00      0.3531      0.3531
    -75.00      0.3492      0.3492