IEA-15-240-RWT_AeroDyn15_Polar_33; 2 361 2 361 2 361
                0.0000      1.0000
   -180.00      0.0000      0.0000
   -179.00      0.0248      0.0248
   -178.00      0.0497      0.0497
   -177.00      0.0745      0.0745
   -176.00      0.0994      0.0994
   -175.00      0.1242      0.1242
   -174.00      0.1491      0.1491
   -173.00      0.1739      0.1739
   -172.00      0.1988      0.1988
   -171.00      0.2236      0.2236
   -170.00      0.2485      0.2485
   -169.00      0.2733      0.2733
   -168.00      0.2982      0.2982
   -167.00      0.3230      0.3230
   -166.00      0.3479      0.3479
   -165.00      0.3727      0.3727
   -164.00      0.3976      0.3976
   -163.00      0.4224      0.4224
   -162.00      0.4473      0.4473
   -161.00      0.4721      0.4721
   -160.00      0.4970      0.4970
   -159.00      0.5218      0.5218
   -158.00      0.5467      0.5467
   -157.00      0.5715      0.5715
   -156.00      0.5964      0.5964
   -155.00      0.6212      0.6212
   -154.00      0.6461      0.6461
   -153.00      0.6709      0.6709
   -152.00      0.6973      0.6973
   -151.00      0.7237      0.7237
   -150.00      0.7455      0.7455
   -149.00      0.7644      0.7644
   -148.00      0.7808      0.7808
   -147.00      0.7877      0.7877
   -146.00      0.7836      0.7836
   -145.00      0.7746      0.7746
   -144.00      0.7655      0.7655
   -143.00      0.7582      0.7582
   -142.00      0.7509      0.7509
   -141.00      0.7435      0.7435
   -140.00      0.7360      0.7360
   -139.00      0.7283      0.7283
   -138.00      0.7205      0.7205
   -137.00      0.7125      0.7125
   -136.00      0.7044      0.7044
   -135.00      0.6960      0.6960
   -134.00      0.6873      0.6873
   -133.00      0.6783      0.6783
   -132.00      0.6689      0.6689
   -131.00      0.6591      0.6591
   -130.00      0.6489      0.6489
   -129.00      0.6383      0.6383
   -128.00      0.6272      0.6272
   -127.00      0.6158      0.6158
   -126.00      0.6040      0.6040
   -125.00      0.5920      0.5920
   -124.00      0.5797      0.5797
   -123.00      0.5669      0.5669
   -122.00      0.5536      0.5536
   -121.00      0.5398      0.5398
   -120.00      0.5256      0.5256
   -119.00      0.5112      0.5112
   -118.00      0.4965      0.4965
   -117.00      0.4815      0.4815
   -116.00      0.4662      0.4662
   -115.00      0.4507      0.4507
   -114.00      0.4349      0.4349
   -113.00      0.4188      0.4188
   -112.00      0.4023      0.4023
   -111.00      0.3856      0.3856
   -110.00      0.3684      0.3684
   -109.00      0.3510      0.3510
   -108.00      0.3334      0.3334
   -107.00      0.3156      0.3156
   -106.00      0.2977      0.2977
   -105.00      0.2796      0.2796
   -104.00      0.2614      0.2614
   -103.00      0.2430      0.2430
   -102.00      0.2246      0.2246
   -101.00      0.2059      0.2059
   -100.00      0.1872      0.1872
    -99.00      0.1684      0.1684
    -98.00      0.1496      0.1496
    -97.00      0.1308      0.1308
    -96.00      0.1119      0.1119
    -95.00      0.0932      0.0932
    -94.00      0.0744      0.0744
    -93.00      0.0557      0.0557
    -92.00      0.0371      0.0371
    -91.00      0.0186      0.0186
    -90.00     -0.0000     -0.0000
    -89.00     -0.0186     -0.0186
    -88.00     -0.0371     -0.0371
    -87.00     -0.0557     -0.0557
    -86.00     -0.0744     -0.0744
    -85.00     -0.0932     -0.0932
    -84.00     -0.1119     -0.1119
    -83.00     -0.1308     -0.1308
    -82.00     -0.1496     -0.1496
    -81.00     -0.1684     -0.1684
    -80.00     -0.1872     -0.1872
    -79.00     -0.2059     -0.2059
    -78.00     -0.2246     -0.2246
    -77.00     -0.2430     -0.2430
    -76.00     -0.2614     -0.2614
    -75.00     -0.2796     -0.2796
    -74.00     -0.2977     -0.2977
    -73.00     -0.3156     -0.3156
    -72.00     -0.3334     -0.3334
    -71.00     -0.3510     -0.3510
    -70.00     -0.3684     -0.3684
    -69.00     -0.3856     -0.3856
    -68.00     -0.4023     -0.4023
    -67.00     -0.4188     -0.4188
    -66.00     -0.4349     -0.4349
    -65.00     -0.4507     -0.4507
    -64.00     -0.4662     -0.4662
    -63.00     -0.4815     -0.4815
    -62.00     -0.4965     -0.4965
    -61.00     -0.5112     -0.5112
    -60.00     -0.5256     -0.5256
    -59.00     -0.5398     -0.5398
    -58.00     -0.5536     -0.5536
    -57.00     -0.5669     -0.5669
    -56.00     -0.5797     -0.5797
    -55.00     -0.5920     -0.5920
    -54.00     -0.6040     -0.6040
    -53.00     -0.6158     -0.6158
    -52.00     -0.6272     -0.6272
    -51.00     -0.6383     -0.6383
    -50.00     -0.6489     -0.6489
    -49.00     -0.6591     -0.6591
    -48.00     -0.6689     -0.6689
    -47.00     -0.6802     -0.6802
    -46.00     -0.6911     -0.6911
    -45.00     -0.6960     -0.6960
    -44.00     -0.6936     -0.6936
    -43.00     -0.6884     -0.6884
    -42.00     -0.6830     -0.6830
    -41.00     -0.6780     -0.6780
    -40.00     -0.6729     -0.6729
    -39.00     -0.6685     -0.6685
    -38.00     -0.6645     -0.6645
    -37.00     -0.6610     -0.6610
    -36.00     -0.6595     -0.6595
    -35.00     -0.6599     -0.6599
    -34.00     -0.6610     -0.6610
    -33.00     -0.6629     -0.6629
    -32.00     -0.6841     -0.6841
    -31.00     -0.7308     -0.7308
    -30.00     -0.7850     -0.7850
    -29.00     -0.8482     -0.8482
    -28.00     -0.9097     -0.9097
    -27.00     -0.9430     -0.9430
    -26.00     -0.9706     -0.9706
    -25.00     -0.9988     -0.9988
    -24.00     -1.0385     -1.0385
    -23.00     -1.0556     -1.0556
    -22.00     -1.0721     -1.0721
    -21.00     -1.0887     -1.0887
    -20.00     -1.1036     -1.1036
    -19.00     -1.1055     -1.1055
    -18.00     -1.1051     -1.1051
    -17.00     -1.0967     -1.0967
    -16.00     -1.0873     -1.0873
    -15.00     -1.0693     -1.0693
    -14.00     -1.0539     -1.0539
    -13.00     -1.0427     -1.0427
    -12.00     -1.0273     -1.0273
    -11.00     -0.9804     -0.9804
    -10.00     -0.9313     -0.9313
     -9.00     -0.7979     -0.7979
     -8.00     -0.6629     -0.6629
     -7.00     -0.5285     -0.5285
     -6.00     -0.3949     -0.3949
     -5.00     -0.2649     -0.2649
     -4.00     -0.1354     -0.1354
     -3.00     -0.0079     -0.0079
     -2.00      0.1194      0.1194
     -1.00      0.2459      0.2459
      0.00      0.3716      0.3716
      1.00      0.4973      0.4973
      2.00      0.6214      0.6214
      3.00      0.7445      0.7445
      4.00      0.8666      0.8666
      5.00      0.9867      0.9867
      6.00      1.1046      1.1046
      7.00      1.2197      1.2197
      8.00      1.3309      1.3309
      9.00      1.4372      1.4372
     10.00      1.5398      1.5398
     11.00      1.6347      1.6347
     12.00      1.7220      1.7220
     13.00      1.7979      1.7979
     14.00      1.8518      1.8518
     15.00      1.8858      1.8858
     16.00      1.8743      1.8743
     17.00      1.7997      1.7997
     18.00      1.7214      1.7214
     19.00      1.6287      1.6287
     20.00      1.5390      1.5390
     21.00      1.4761      1.4761
     22.00      1.4172      1.4172
     23.00      1.3576      1.3576
     24.00      1.2972      1.2972
     25.00      1.2501      1.2501
     26.00      1.2101      1.2101
     27.00      1.1712      1.1712
     28.00      1.1342      1.1342
     29.00      1.0937      1.0937
     30.00      1.0568      1.0568
     31.00      1.0247      1.0247
     32.00      0.9966      0.9966
     33.00      0.9837      0.9837
     34.00      0.9823      0.9823
     35.00      0.9814      0.9814
     36.00      0.9811      0.9811
     37.00      0.9823      0.9823
     38.00      0.9848      0.9848
     39.00      0.9872      0.9872
     40.00      0.9889      0.9889
     41.00      0.9905      0.9905
     42.00      0.9917      0.9917
     43.00      0.9929      0.9929
     44.00      0.9939      0.9939
     45.00      0.9943      0.9943
     46.00      0.9873      0.9873
     47.00      0.9717      0.9717
     48.00      0.9556      0.9556
     49.00      0.9416      0.9416
     50.00      0.9270      0.9270
     51.00      0.9118      0.9118
     52.00      0.8961      0.8961
     53.00      0.8796      0.8796
     54.00      0.8628      0.8628
     55.00      0.8457      0.8457
     56.00      0.8281      0.8281
     57.00      0.8099      0.8099
     58.00      0.7908      0.7908
     59.00      0.7711      0.7711
     60.00      0.7509      0.7509
     61.00      0.7303      0.7303
     62.00      0.7093      0.7093
     63.00      0.6879      0.6879
     64.00      0.6661      0.6661
     65.00      0.6439      0.6439
     66.00      0.6213      0.6213
     67.00      0.5982      0.5982
     68.00      0.5747      0.5747
     69.00      0.5508      0.5508
     70.00      0.5264      0.5264
     71.00      0.5014      0.5014
     72.00      0.4762      0.4762
     73.00      0.4509      0.4509
     74.00      0.4252      0.4252
     75.00      0.3994      0.3994
     76.00      0.3734      0.3734
     77.00      0.3472      0.3472
     78.00      0.3208      0.3208
     79.00      0.2942      0.2942
     80.00      0.2674      0.2674
     81.00      0.2405      0.2405
     82.00      0.2137      0.2137
     83.00      0.1868      0.1868
     84.00      0.1599      0.1599
     85.00      0.1331      0.1331
     86.00      0.1063      0.1063
     87.00      0.0796      0.0796
     88.00      0.0520      0.0520
     89.00      0.0244      0.0244
     90.00      0.0000      0.0000
     91.00     -0.0200     -0.0200
     92.00     -0.0379     -0.0379
     93.00     -0.0557     -0.0557
     94.00     -0.0744     -0.0744
     95.00     -0.0932     -0.0932
     96.00     -0.1119     -0.1119
     97.00     -0.1308     -0.1308
     98.00     -0.1496     -0.1496
     99.00     -0.1684     -0.1684
    100.00     -0.1872     -0.1872
    101.00     -0.2059     -0.2059
    102.00     -0.2246     -0.2246
    103.00     -0.2430     -0.2430
    104.00     -0.2614     -0.2614
    105.00     -0.2796     -0.2796
    106.00     -0.2977     -0.2977
    107.00     -0.3156     -0.3156
    108.00     -0.3334     -0.3334
    109.00     -0.3510     -0.3510
    110.00     -0.3684     -0.3684
    111.00     -0.3856     -0.3856
    112.00     -0.4023     -0.4023
    113.00     -0.4188     -0.4188
    114.00     -0.4349     -0.4349
    115.00     -0.4507     -0.4507
    116.00     -0.4662     -0.4662
    117.00     -0.4815     -0.4815
    118.00     -0.4965     -0.4965
    119.00     -0.5112     -0.5112
    120.00     -0.5256     -0.5256
    121.00     -0.5398     -0.5398
    122.00     -0.5536     -0.5536
    123.00     -0.5669     -0.5669
    124.00     -0.5797     -0.5797
    125.00     -0.5920     -0.5920
    126.00     -0.6040     -0.6040
    127.00     -0.6158     -0.6158
    128.00     -0.6272     -0.6272
    129.00     -0.6383     -0.6383
    130.00     -0.6489     -0.6489
    131.00     -0.6591     -0.6591
    132.00     -0.6689     -0.6689
    133.00     -0.6783     -0.6783
    134.00     -0.6873     -0.6873
    135.00     -0.6960     -0.6960
    136.00     -0.7044     -0.7044
    137.00     -0.7125     -0.7125
    138.00     -0.7205     -0.7205
    139.00     -0.7283     -0.7283
    140.00     -0.7360     -0.7360
    141.00     -0.7435     -0.7435
    142.00     -0.7509     -0.7509
    143.00     -0.7582     -0.7582
    144.00     -0.7655     -0.7655
    145.00     -0.7746     -0.7746
    146.00     -0.7836     -0.7836
    147.00     -0.7877     -0.7877
    148.00     -0.7808     -0.7808
    149.00     -0.7644     -0.7644
    150.00     -0.7455     -0.7455
    151.00     -0.7237     -0.7237
    152.00     -0.6973     -0.6973
    153.00     -0.6709     -0.6709
    154.00     -0.6461     -0.6461
    155.00     -0.6212     -0.6212
    156.00     -0.5964     -0.5964
    157.00     -0.5715     -0.5715
    158.00     -0.5467     -0.5467
    159.00     -0.5218     -0.5218
    160.00     -0.4970     -0.4970
    161.00     -0.4721     -0.4721
    162.00     -0.4473     -0.4473
    163.00     -0.4224     -0.4224
    164.00     -0.3976     -0.3976
    165.00     -0.3727     -0.3727
    166.00     -0.3479     -0.3479
    167.00     -0.3230     -0.3230
    168.00     -0.2982     -0.2982
    169.00     -0.2733     -0.2733
    170.00     -0.2485     -0.2485
    171.00     -0.2236     -0.2236
    172.00     -0.1988     -0.1988
    173.00     -0.1739     -0.1739
    174.00     -0.1491     -0.1491
    175.00     -0.1242     -0.1242
    176.00     -0.0994     -0.0994
    177.00     -0.0745     -0.0745
    178.00     -0.0497     -0.0497
    179.00     -0.0248     -0.0248
    180.00      0.0000      0.0000
                0.0000      1.0000
   -180.00      0.0135      0.0135
   -179.00      0.0138      0.0138
   -178.00      0.0143      0.0143
   -177.00      0.0149      0.0149
   -176.00      0.0158      0.0158
   -175.00      0.0171      0.0171
   -174.00      0.0186      0.0186
   -173.00      0.0201      0.0201
   -172.00      0.0220      0.0220
   -171.00      0.0245      0.0245
   -170.00      0.0280      0.0280
   -169.00      0.0329      0.0329
   -168.00      0.0392      0.0392
   -167.00      0.0486      0.0486
   -166.00      0.0613      0.0613
   -165.00      0.0747      0.0747
   -164.00      0.0882      0.0882
   -163.00      0.1027      0.1027
   -162.00      0.1180      0.1180
   -161.00      0.1341      0.1341
   -160.00      0.1512      0.1512
   -159.00      0.1689      0.1689
   -158.00      0.1873      0.1873
   -157.00      0.2064      0.2064
   -156.00      0.2260      0.2260
   -155.00      0.2462      0.2462
   -154.00      0.2669      0.2669
   -153.00      0.2882      0.2882
   -152.00      0.3101      0.3101
   -151.00      0.3325      0.3325
   -150.00      0.3553      0.3553
   -149.00      0.3788      0.3788
   -148.00      0.4028      0.4028
   -147.00      0.4271      0.4271
   -146.00      0.4515      0.4515
   -145.00      0.4761      0.4761
   -144.00      0.5012      0.5012
   -143.00      0.5267      0.5267
   -142.00      0.5526      0.5526
   -141.00      0.5786      0.5786
   -140.00      0.6047      0.6047
   -139.00      0.6309      0.6309
   -138.00      0.6572      0.6572
   -137.00      0.6836      0.6836
   -136.00      0.7101      0.7101
   -135.00      0.7366      0.7366
   -134.00      0.7632      0.7632
   -133.00      0.7898      0.7898
   -132.00      0.8162      0.8162
   -131.00      0.8425      0.8425
   -130.00      0.8686      0.8686
   -129.00      0.8945      0.8945
   -128.00      0.9202      0.9202
   -127.00      0.9457      0.9457
   -126.00      0.9710      0.9710
   -125.00      0.9962      0.9962
   -124.00      1.0212      1.0212
   -123.00      1.0456      1.0456
   -122.00      1.0695      1.0695
   -121.00      1.0929      1.0929
   -120.00      1.1159      1.1159
   -119.00      1.1384      1.1384
   -118.00      1.1605      1.1605
   -117.00      1.1821      1.1821
   -116.00      1.2033      1.2033
   -115.00      1.2241      1.2241
   -114.00      1.2442      1.2442
   -113.00      1.2639      1.2639
   -112.00      1.2829      1.2829
   -111.00      1.3011      1.3011
   -110.00      1.3183      1.3183
   -109.00      1.3346      1.3346
   -108.00      1.3503      1.3503
   -107.00      1.3654      1.3654
   -106.00      1.3799      1.3799
   -105.00      1.3937      1.3937
   -104.00      1.4070      1.4070
   -103.00      1.4196      1.4196
   -102.00      1.4312      1.4312
   -101.00      1.4416      1.4416
   -100.00      1.4512      1.4512
    -99.00      1.4598      1.4598
    -98.00      1.4673      1.4673
    -97.00      1.4742      1.4742
    -96.00      1.4801      1.4801
    -95.00      1.4853      1.4853
    -94.00      1.4899      1.4899
    -93.00      1.4935      1.4935
    -92.00      1.4965      1.4965
    -91.00      1.4990      1.4990
    -90.00      1.5000      1.5000
    -89.00      1.4990      1.4990
    -88.00      1.4965      1.4965
    -87.00      1.4935      1.4935
    -86.00      1.4899      1.4899
    -85.00      1.4853      1.4853
    -84.00      1.4801      1.4801
    -83.00      1.4742      1.4742
    -82.00      1.4673      1.4673
    -81.00      1.4598      1.4598
    -80.00      1.4512      1.4512
    -79.00      1.4416      1.4416
    -78.00      1.4312      1.4312
    -77.00      1.4196      1.4196
    -76.00      1.4070      1.4070
    -75.00      1.3937      1.3937
    -74.00      1.3799      1.3799
    -73.00      1.3654      1.3654
    -72.00      1.3503      1.3503
    -71.00      1.3346      1.3346
    -70.00      1.3183      1.3183
    -69.00      1.3011      1.3011
    -68.00      1.2829      1.2829
    -67.00      1.2639      1.2639
    -66.00      1.2442      1.2442
    -65.00      1.2241      1.2241
    -64.00      1.2033      1.2033
    -63.00      1.1821      1.1821
    -62.00      1.1605      1.1605
    -61.00      1.1384      1.1384
    -60.00      1.1159      1.1159
    -59.00      1.0929      1.0929
    -58.00      1.0695      1.0695
    -57.00      1.0456      1.0456
    -56.00      1.0212      1.0212
    -55.00      0.9962      0.9962
    -54.00      0.9710      0.9710
    -53.00      0.9457      0.9457
    -52.00      0.9202      0.9202
    -51.00      0.8945      0.8945
    -50.00      0.8686      0.8686
    -49.00      0.8425      0.8425
    -48.00      0.8162      0.8162
    -47.00      0.7898      0.7898
    -46.00      0.7632      0.7632
    -45.00      0.7366      0.7366
    -44.00      0.7101      0.7101
    -43.00      0.6836      0.6836
    -42.00      0.6572      0.6572
    -41.00      0.6309      0.6309
    -40.00      0.6047      0.6047
    -39.00      0.5786      0.5786
    -38.00      0.5526      0.5526
    -37.00      0.5267      0.5267
    -36.00      0.5012      0.5012
    -35.00      0.4773      0.4773
    -34.00      0.4537      0.4537
    -33.00      0.4271      0.4271
    -32.00      0.3947      0.3947
    -31.00      0.3578      0.3578
    -30.00      0.3185      0.3185
    -29.00      0.2760      0.2760
    -28.00      0.2353      0.2353
    -27.00      0.2117      0.2117
    -26.00      0.1908      0.1908
    -25.00      0.1701      0.1701
    -24.00      0.1483      0.1483
    -23.00      0.1342      0.1342
    -22.00      0.1204      0.1204
    -21.00      0.1066      0.1066
    -20.00      0.0933      0.0933
    -19.00      0.0832      0.0832
    -18.00      0.0737      0.0737
    -17.00      0.0657      0.0657
    -16.00      0.0578      0.0578
    -15.00      0.0510      0.0510
    -14.00      0.0446      0.0446
    -13.00      0.0381      0.0381
    -12.00      0.0314      0.0314
    -11.00      0.0254      0.0254
    -10.00      0.0193      0.0193
     -9.00      0.0151      0.0151
     -8.00      0.0115      0.0115
     -7.00      0.0101      0.0101
     -6.00      0.0090      0.0090
     -5.00      0.0084      0.0084
     -4.00      0.0079      0.0079
     -3.00      0.0077      0.0077
     -2.00      0.0076      0.0076
     -1.00      0.0076      0.0076
      0.00      0.0076      0.0076
      1.00      0.0077      0.0077
      2.00      0.0079      0.0079
      3.00      0.0082      0.0082
      4.00      0.0085      0.0085
      5.00      0.0090      0.0090
      6.00      0.0096      0.0096
      7.00      0.0103      0.0103
      8.00      0.0113      0.0113
      9.00      0.0125      0.0125
     10.00      0.0138      0.0138
     11.00      0.0154      0.0154
     12.00      0.0173      0.0173
     13.00      0.0196      0.0196
     14.00      0.0232      0.0232
     15.00      0.0285      0.0285
     16.00      0.0371      0.0371
     17.00      0.0518      0.0518
     18.00      0.0669      0.0669
     19.00      0.0859      0.0859
     20.00      0.1053      0.1053
     21.00      0.1264      0.1264
     22.00      0.1479      0.1479
     23.00      0.1680      0.1680
     24.00      0.1888      0.1888
     25.00      0.2127      0.2127
     26.00      0.2370      0.2370
     27.00      0.2613      0.2613
     28.00      0.2854      0.2854
     29.00      0.3135      0.3135
     30.00      0.3434      0.3434
     31.00      0.3723      0.3723
     32.00      0.4003      0.4003
     33.00      0.4271      0.4271
     34.00      0.4523      0.4523
     35.00      0.4766      0.4766
     36.00      0.5012      0.5012
     37.00      0.5267      0.5267
     38.00      0.5526      0.5526
     39.00      0.5786      0.5786
     40.00      0.6047      0.6047
     41.00      0.6309      0.6309
     42.00      0.6572      0.6572
     43.00      0.6836      0.6836
     44.00      0.7101      0.7101
     45.00      0.7366      0.7366
     46.00      0.7632      0.7632
     47.00      0.7898      0.7898
     48.00      0.8162      0.8162
     49.00      0.8425      0.8425
     50.00      0.8686      0.8686
     51.00      0.8945      0.8945
     52.00      0.9202      0.9202
     53.00      0.9457      0.9457
     54.00      0.9710      0.9710
     55.00      0.9962      0.9962
     56.00      1.0212      1.0212
     57.00      1.0456      1.0456
     58.00      1.0695      1.0695
     59.00      1.0929      1.0929
     60.00      1.1159      1.1159
     61.00      1.1384      1.1384
     62.00      1.1605      1.1605
     63.00      1.1821      1.1821
     64.00      1.2033      1.2033
     65.00      1.2241      1.2241
     66.00      1.2442      1.2442
     67.00      1.2639      1.2639
     68.00      1.2829      1.2829
     69.00      1.3011      1.3011
     70.00      1.3183      1.3183
     71.00      1.3346      1.3346
     72.00      1.3503      1.3503
     73.00      1.3654      1.3654
     74.00      1.3799      1.3799
     75.00      1.3937      1.3937
     76.00      1.4070      1.4070
     77.00      1.4196      1.4196
     78.00      1.4312      1.4312
     79.00      1.4416      1.4416
     80.00      1.4512      1.4512
     81.00      1.4598      1.4598
     82.00      1.4673      1.4673
     83.00      1.4742      1.4742
     84.00      1.4801      1.4801
     85.00      1.4853      1.4853
     86.00      1.4899      1.4899
     87.00      1.4935      1.4935
     88.00      1.4965      1.4965
     89.00      1.4990      1.4990
     90.00      1.5000      1.5000
     91.00      1.4990      1.4990
     92.00      1.4965      1.4965
     93.00      1.4935      1.4935
     94.00      1.4899      1.4899
     95.00      1.4853      1.4853
     96.00      1.4801      1.4801
     97.00      1.4742      1.4742
     98.00      1.4673      1.4673
     99.00      1.4598      1.4598
    100.00      1.4512      1.4512
    101.00      1.4416      1.4416
    102.00      1.4312      1.4312
    103.00      1.4196      1.4196
    104.00      1.4070      1.4070
    105.00      1.3937      1.3937
    106.00      1.3799      1.3799
    107.00      1.3654      1.3654
    108.00      1.3503      1.3503
    109.00      1.3346      1.3346
    110.00      1.3183      1.3183
    111.00      1.3011      1.3011
    112.00      1.2829      1.2829
    113.00      1.2639      1.2639
    114.00      1.2442      1.2442
    115.00      1.2241      1.2241
    116.00      1.2033      1.2033
    117.00      1.1821      1.1821
    118.00      1.1605      1.1605
    119.00      1.1384      1.1384
    120.00      1.1159      1.1159
    121.00      1.0929      1.0929
    122.00      1.0695      1.0695
    123.00      1.0456      1.0456
    124.00      1.0212      1.0212
    125.00      0.9962      0.9962
    126.00      0.9710      0.9710
    127.00      0.9457      0.9457
    128.00      0.9202      0.9202
    129.00      0.8945      0.8945
    130.00      0.8686      0.8686
    131.00      0.8425      0.8425
    132.00      0.8162      0.8162
    133.00      0.7898      0.7898
    134.00      0.7632      0.7632
    135.00      0.7366      0.7366
    136.00      0.7101      0.7101
    137.00      0.6836      0.6836
    138.00      0.6572      0.6572
    139.00      0.6309      0.6309
    140.00      0.6047      0.6047
    141.00      0.5786      0.5786
    142.00      0.5526      0.5526
    143.00      0.5267      0.5267
    144.00      0.5012      0.5012
    145.00      0.4761      0.4761
    146.00      0.4515      0.4515
    147.00      0.4271      0.4271
    148.00      0.4028      0.4028
    149.00      0.3788      0.3788
    150.00      0.3553      0.3553
    151.00      0.3325      0.3325
    152.00      0.3101      0.3101
    153.00      0.2882      0.2882
    154.00      0.2669      0.2669
    155.00      0.2462      0.2462
    156.00      0.2260      0.2260
    157.00      0.2064      0.2064
    158.00      0.1873      0.1873
    159.00      0.1689      0.1689
    160.00      0.1512      0.1512
    161.00      0.1341      0.1341
    162.00      0.1180      0.1180
    163.00      0.1027      0.1027
    164.00      0.0882      0.0882
    165.00      0.0747      0.0747
    166.00      0.0613      0.0613
    167.00      0.0486      0.0486
    168.00      0.0392      0.0392
    169.00      0.0329      0.0329
    170.00      0.0280      0.0280
    171.00      0.0245      0.0245
    172.00      0.0220      0.0220
    173.00      0.0201      0.0201
    174.00      0.0186      0.0186
    175.00      0.0171      0.0171
    176.00      0.0158      0.0158
    177.00      0.0149      0.0149
    178.00      0.0143      0.0143
    179.00      0.0138      0.0138
    180.00      0.0135      0.0135
                0.0000      1.0000
   -180.00      0.0000      0.0000
   -179.00      0.0400      0.0400
   -178.00      0.0800      0.0800
   -177.00      0.1200      0.1200
   -176.00      0.1600      0.1600
   -175.00      0.2000      0.2000
   -174.00      0.2400      0.2400
   -173.00      0.2851      0.2851
   -172.00      0.3302      0.3302
   -171.00      0.3600      0.3600
   -170.00      0.3759      0.3759
   -169.00      0.3877      0.3877
   -168.00      0.3923      0.3923
   -167.00      0.3901      0.3901
   -166.00      0.3854      0.3854
   -165.00      0.3807      0.3807
   -164.00      0.3760      0.3760
   -163.00      0.3713      0.3713
   -162.00      0.3691      0.3691
   -161.00      0.3691      0.3691
   -160.00      0.3690      0.3690
   -159.00      0.3690      0.3690
   -158.00      0.3732      0.3732
   -157.00      0.3825      0.3825
   -156.00      0.3918      0.3918
   -155.00      0.3995      0.3995
   -154.00      0.4072      0.4072
   -153.00      0.4146      0.4146
   -152.00      0.4229      0.4229
   -151.00      0.4311      0.4311
   -150.00      0.4356      0.4356
   -149.00      0.4368      0.4368
   -148.00      0.4376      0.4376
   -147.00      0.4381      0.4381
   -146.00      0.4384      0.4384
   -145.00      0.4386      0.4386
   -144.00      0.4389      0.4389
   -143.00      0.4392      0.4392
   -142.00      0.4395      0.4395
   -141.00      0.4399      0.4399
   -140.00      0.4406      0.4406
   -139.00      0.4414      0.4414
   -138.00      0.4423      0.4423
   -137.00      0.4430      0.4430
   -136.00      0.4438      0.4438
   -135.00      0.4445      0.4445
   -134.00      0.4452      0.4452
   -133.00      0.4459      0.4459
   -132.00      0.4468      0.4468
   -131.00      0.4479      0.4479
   -130.00      0.4491      0.4491
   -129.00      0.4505      0.4505
   -128.00      0.4519      0.4519
   -127.00      0.4533      0.4533
   -126.00      0.4549      0.4549
   -125.00      0.4565      0.4565
   -124.00      0.4582      0.4582
   -123.00      0.4598      0.4598
   -122.00      0.4614      0.4614
   -121.00      0.4629      0.4629
   -120.00      0.4644      0.4644
   -119.00      0.4658      0.4658
   -118.00      0.4672      0.4672
   -117.00      0.4684      0.4684
   -116.00      0.4697      0.4697
   -115.00      0.4709      0.4709
   -114.00      0.4721      0.4721
   -113.00      0.4734      0.4734
   -112.00      0.4748      0.4748
   -111.00      0.4757      0.4757
   -110.00      0.4761      0.4761
   -109.00      0.4764      0.4764
   -108.00      0.4766      0.4766
   -107.00      0.4767      0.4767
   -106.00      0.4768      0.4768
   -105.00      0.4768      0.4768
   -104.00      0.4767      0.4767
   -103.00      0.4766      0.4766
   -102.00      0.4764      0.4764
   -101.00      0.4760      0.4760
   -100.00      0.4753      0.4753
    -99.00      0.4744      0.4744
    -98.00      0.4732      0.4732
    -97.00      0.4717      0.4717
    -96.00      0.4701      0.4701
    -95.00      0.4686      0.4686
    -94.00      0.4669      0.4669
    -93.00      0.4652      0.4652
    -92.00      0.4637      0.4637
    -91.00      0.4623      0.4623
    -90.00      0.4603      0.4603
    -89.00      0.4573      0.4573
    -88.00      0.4532      0.4532
    -87.00      0.4492      0.4492
    -86.00      0.4455      0.4455
    -85.00      0.4418      0.4418
    -84.00      0.4380      0.4380
    -83.00      0.4342      0.4342
    -82.00      0.4304      0.4304
    -81.00      0.4263      0.4263
    -80.00      0.4221      0.4221
    -79.00      0.4176      0.4176
    -78.00      0.4130      0.4130
    -77.00      0.4083      0.4083
    -76.00      0.4034      0.4034
    -75.00      0.3985      0.3985