IEA-15-240-RWT_AeroDyn15_Polar_02; 2 361 2 361 2 361
                0.0000      1.0000
   -180.00      0.0001      0.0001
   -179.00      0.0062      0.0062
   -178.00      0.0123      0.0123
   -177.00      0.0185      0.0185
   -176.00      0.0247      0.0247
   -175.00      0.0310      0.0310
   -174.00      0.0373      0.0373
   -173.00      0.0435      0.0435
   -172.00      0.0498      0.0498
   -171.00      0.0560      0.0560
   -170.00      0.0623      0.0623
   -169.00      0.0685      0.0685
   -168.00      0.0747      0.0747
   -167.00      0.0809      0.0809
   -166.00      0.0871      0.0871
   -165.00      0.0934      0.0934
   -164.00      0.1000      0.1000
   -163.00      0.1066      0.1066
   -162.00      0.1120      0.1120
   -161.00      0.1165      0.1165
   -160.00      0.1204      0.1204
   -159.00      0.1220      0.1220
   -158.00      0.1207      0.1207
   -157.00      0.1177      0.1177
   -156.00      0.1147      0.1147
   -155.00      0.1123      0.1123
   -154.00      0.1099      0.1099
   -153.00      0.1075      0.1075
   -152.00      0.1053      0.1053
   -151.00      0.1031      0.1031
   -150.00      0.1002      0.1002
   -149.00      0.0938      0.0938
   -148.00      0.0852      0.0852
   -147.00      0.0795      0.0795
   -146.00      0.0776      0.0776
   -145.00      0.0763      0.0763
   -144.00      0.0749      0.0749
   -143.00      0.0730      0.0730
   -142.00      0.0709      0.0709
   -141.00      0.0690      0.0690
   -140.00      0.0675      0.0675
   -139.00      0.0660      0.0660
   -138.00      0.0646      0.0646
   -137.00      0.0633      0.0633
   -136.00      0.0621      0.0621
   -135.00      0.0608      0.0608
   -134.00      0.0595      0.0595
   -133.00      0.0582      0.0582
   -132.00      0.0568      0.0568
   -131.00      0.0555      0.0555
   -130.00      0.0542      0.0542
   -129.00      0.0528      0.0528
   -128.00      0.0515      0.0515
   -127.00      0.0502      0.0502
   -126.00      0.0488      0.0488
   -125.00      0.0475      0.0475
   -124.00      0.0462      0.0462
   -123.00      0.0449      0.0449
   -122.00      0.0437      0.0437
   -121.00      0.0425      0.0425
   -120.00      0.0412      0.0412
   -119.00      0.0398      0.0398
   -118.00      0.0384      0.0384
   -117.00      0.0370      0.0370
   -116.00      0.0356      0.0356
   -115.00      0.0342      0.0342
   -114.00      0.0328      0.0328
   -113.00      0.0315      0.0315
   -112.00      0.0301      0.0301
   -111.00      0.0288      0.0288
   -110.00      0.0274      0.0274
   -109.00      0.0261      0.0261
   -108.00      0.0247      0.0247
   -107.00      0.0233      0.0233
   -106.00      0.0219      0.0219
   -105.00      0.0205      0.0205
   -104.00      0.0191      0.0191
   -103.00      0.0177      0.0177
   -102.00      0.0163      0.0163
   -101.00      0.0149      0.0149
   -100.00      0.0135      0.0135
    -99.00      0.0122      0.0122
    -98.00      0.0109      0.0109
    -97.00      0.0096      0.0096
    -96.00      0.0084      0.0084
    -95.00      0.0070      0.0070
    -94.00      0.0057      0.0057
    -93.00      0.0043      0.0043
    -92.00      0.0029      0.0029
    -91.00      0.0015      0.0015
    -90.00      0.0001      0.0001
    -89.00     -0.0013     -0.0013
    -88.00     -0.0028     -0.0028
    -87.00     -0.0042     -0.0042
    -86.00     -0.0055     -0.0055
    -85.00     -0.0069     -0.0069
    -84.00     -0.0082     -0.0082
    -83.00     -0.0095     -0.0095
    -82.00     -0.0107     -0.0107
    -81.00     -0.0120     -0.0120
    -80.00     -0.0133     -0.0133
    -79.00     -0.0147     -0.0147
    -78.00     -0.0161     -0.0161
    -77.00     -0.0175     -0.0175
    -76.00     -0.0189     -0.0189
    -75.00     -0.0203     -0.0203
    -74.00     -0.0217     -0.0217
    -73.00     -0.0231     -0.0231
    -72.00     -0.0245     -0.0245
    -71.00     -0.0259     -0.0259
    -70.00     -0.0273     -0.0273
    -69.00     -0.0286     -0.0286
    -68.00     -0.0300     -0.0300
    -67.00     -0.0313     -0.0313
    -66.00     -0.0326     -0.0326
    -65.00     -0.0340     -0.0340
    -64.00     -0.0354     -0.0354
    -63.00     -0.0368     -0.0368
    -62.00     -0.0382     -0.0382
    -61.00     -0.0396     -0.0396
    -60.00     -0.0410     -0.0410
    -59.00     -0.0423     -0.0423
    -58.00     -0.0435     -0.0435
    -57.00     -0.0447     -0.0447
    -56.00     -0.0460     -0.0460
    -55.00     -0.0473     -0.0473
    -54.00     -0.0487     -0.0487
    -53.00     -0.0500     -0.0500
    -52.00     -0.0513     -0.0513
    -51.00     -0.0526     -0.0526
    -50.00     -0.0540     -0.0540
    -49.00     -0.0553     -0.0553
    -48.00     -0.0567     -0.0567
    -47.00     -0.0580     -0.0580
    -46.00     -0.0593     -0.0593
    -45.00     -0.0607     -0.0607
    -44.00     -0.0619     -0.0619
    -43.00     -0.0632     -0.0632
    -42.00     -0.0645     -0.0645
    -41.00     -0.0658     -0.0658
    -40.00     -0.0673     -0.0673
    -39.00     -0.0689     -0.0689
    -38.00     -0.0707     -0.0707
    -37.00     -0.0728     -0.0728
    -36.00     -0.0747     -0.0747
    -35.00     -0.0764     -0.0764
    -34.00     -0.0780     -0.0780
    -33.00     -0.0794     -0.0794
    -32.00     -0.0806     -0.0806
    -31.00     -0.0816     -0.0816
    -30.00     -0.0821     -0.0821
    -29.00     -0.0795     -0.0795
    -28.00     -0.0775     -0.0775
    -27.00     -0.0807     -0.0807
    -26.00     -0.0844     -0.0844
    -25.00     -0.0883     -0.0883
    -24.00     -0.0921     -0.0921
    -23.00     -0.0965     -0.0965
    -22.00     -0.1009     -0.1009
    -21.00     -0.1049     -0.1049
    -20.00     -0.1082     -0.1082
    -19.00     -0.1049     -0.1049
    -18.00     -0.1039     -0.1039
    -17.00     -0.1034     -0.1034
    -16.00     -0.1003     -0.1003
    -15.00     -0.0984     -0.0984
    -14.00     -0.0931     -0.0931
    -13.00     -0.0892     -0.0892
    -12.00     -0.0820     -0.0820
    -11.00     -0.0752     -0.0752
    -10.00     -0.0720     -0.0720
     -9.00     -0.0632     -0.0632
     -8.00     -0.0475     -0.0475
     -7.00     -0.0338     -0.0338
     -6.00     -0.0196     -0.0196
     -5.00     -0.0058     -0.0058
     -4.00     -0.0001     -0.0001
     -3.00      0.0112      0.0112
     -2.00      0.0218      0.0218
     -1.00      0.0284      0.0284
      0.00      0.0346      0.0346
      1.00      0.0428      0.0428
      2.00      0.0513      0.0513
      3.00      0.0600      0.0600
      4.00      0.0686      0.0686
      5.00      0.0773      0.0773
      6.00      0.0860      0.0860
      7.00      0.0947      0.0947
      8.00      0.1036      0.1036
      9.00      0.1126      0.1126
     10.00      0.1189      0.1189
     11.00      0.1247      0.1247
     12.00      0.1281      0.1281
     13.00      0.1363      0.1363
     14.00      0.1475      0.1475
     15.00      0.1557      0.1557
     16.00      0.1620      0.1620
     17.00      0.1707      0.1707
     18.00      0.1737      0.1737
     19.00      0.1754      0.1754
     20.00      0.1764      0.1764
     21.00      0.1728      0.1728
     22.00      0.1714      0.1714
     23.00      0.1727      0.1727
     24.00      0.1746      0.1746
     25.00      0.1688      0.1688
     26.00      0.1602      0.1602
     27.00      0.1516      0.1516
     28.00      0.1429      0.1429
     29.00      0.1335      0.1335
     30.00      0.1255      0.1255
     31.00      0.1198      0.1198
     32.00      0.1148      0.1148
     33.00      0.1111      0.1111
     34.00      0.1087      0.1087
     35.00      0.1069      0.1069
     36.00      0.1049      0.1049
     37.00      0.1023      0.1023
     38.00      0.0995      0.0995
     39.00      0.0970      0.0970
     40.00      0.0950      0.0950
     41.00      0.0931      0.0931
     42.00      0.0914      0.0914
     43.00      0.0896      0.0896
     44.00      0.0880      0.0880
     45.00      0.0863      0.0863
     46.00      0.0845      0.0845
     47.00      0.0828      0.0828
     48.00      0.0809      0.0809
     49.00      0.0791      0.0791
     50.00      0.0773      0.0773
     51.00      0.0754      0.0754
     52.00      0.0735      0.0735
     53.00      0.0716      0.0716
     54.00      0.0697      0.0697
     55.00      0.0679      0.0679
     56.00      0.0660      0.0660
     57.00      0.0642      0.0642
     58.00      0.0624      0.0624
     59.00      0.0607      0.0607
     60.00      0.0589      0.0589
     61.00      0.0569      0.0569
     62.00      0.0548      0.0548
     63.00      0.0528      0.0528
     64.00      0.0508      0.0508
     65.00      0.0488      0.0488
     66.00      0.0469      0.0469
     67.00      0.0449      0.0449
     68.00      0.0430      0.0430
     69.00      0.0411      0.0411
     70.00      0.0392      0.0392
     71.00      0.0372      0.0372
     72.00      0.0352      0.0352
     73.00      0.0332      0.0332
     74.00      0.0312      0.0312
     75.00      0.0292      0.0292
     76.00      0.0272      0.0272
     77.00      0.0252      0.0252
     78.00      0.0232      0.0232
     79.00      0.0212      0.0212
     80.00      0.0193      0.0193
     81.00      0.0174      0.0174
     82.00      0.0155      0.0155
     83.00      0.0137      0.0137
     84.00      0.0119      0.0119
     85.00      0.0100      0.0100
     86.00      0.0081      0.0081
     87.00      0.0062      0.0062
     88.00      0.0041      0.0041
     89.00      0.0020      0.0020
     90.00      0.0001      0.0001
     91.00     -0.0014     -0.0014
     92.00     -0.0028     -0.0028
     93.00     -0.0042     -0.0042
     94.00     -0.0055     -0.0055
     95.00     -0.0069     -0.0069
     96.00     -0.0082     -0.0082
     97.00     -0.0095     -0.0095
     98.00     -0.0107     -0.0107
     99.00     -0.0120     -0.0120
    100.00     -0.0133     -0.0133
    101.00     -0.0147     -0.0147
    102.00     -0.0161     -0.0161
    103.00     -0.0175     -0.0175
    104.00     -0.0189     -0.0189
    105.00     -0.0203     -0.0203
    106.00     -0.0217     -0.0217
    107.00     -0.0231     -0.0231
    108.00     -0.0245     -0.0245
    109.00     -0.0259     -0.0259
    110.00     -0.0273     -0.0273
    111.00     -0.0286     -0.0286
    112.00     -0.0300     -0.0300
    113.00     -0.0313     -0.0313
    114.00     -0.0326     -0.0326
    115.00     -0.0340     -0.0340
    116.00     -0.0354     -0.0354
    117.00     -0.0368     -0.0368
    118.00     -0.0382     -0.0382
    119.00     -0.0396     -0.0396
    120.00     -0.0410     -0.0410
    121.00     -0.0423     -0.0423
    122.00     -0.0435     -0.0435
    123.00     -0.0447     -0.0447
    124.00     -0.0460     -0.0460
    125.00     -0.0473     -0.0473
    126.00     -0.0487     -0.0487
    127.00     -0.0500     -0.0500
    128.00     -0.0513     -0.0513
    129.00     -0.0526     -0.0526
    130.00     -0.0540     -0.0540
    131.00     -0.0553     -0.0553
    132.00     -0.0567     -0.0567
    133.00     -0.0580     -0.0580
    134.00     -0.0593     -0.0593
    135.00     -0.0607     -0.0607
    136.00     -0.0619     -0.0619
    137.00     -0.0632     -0.0632
    138.00     -0.0645     -0.0645
    139.00     -0.0658     -0.0658
    140.00     -0.0673     -0.0673
    141.00     -0.0689     -0.0689
    142.00     -0.0707     -0.0707
    143.00     -0.0728     -0.0728
    144.00     -0.0747     -0.0747
    145.00     -0.0761     -0.0761
    146.00     -0.0774     -0.0774
    147.00     -0.0794     -0.0794
    148.00     -0.0850     -0.0850
    149.00     -0.0936     -0.0936
    150.00     -0.1000     -0.1000
    151.00     -0.1029     -0.1029
    152.00     -0.1051     -0.1051
    153.00     -0.1073     -0.1073
    154.00     -0.1097     -0.1097
    155.00     -0.1121     -0.1121
    156.00     -0.1146     -0.1146
    157.00     -0.1175     -0.1175
    158.00     -0.1205     -0.1205
    159.00     -0.1218     -0.1218
    160.00     -0.1202     -0.1202
    161.00     -0.1164     -0.1164
    162.00     -0.1118     -0.1118
    163.00     -0.1064     -0.1064
    164.00     -0.0998     -0.0998
    165.00     -0.0932     -0.0932
    166.00     -0.0870     -0.0870
    167.00     -0.0807     -0.0807
    168.00     -0.0745     -0.0745
    169.00     -0.0683     -0.0683
    170.00     -0.0621     -0.0621
    171.00     -0.0558     -0.0558
    172.00     -0.0496     -0.0496
    173.00     -0.0433     -0.0433
    174.00     -0.0371     -0.0371
    175.00     -0.0308     -0.0308
    176.00     -0.0245     -0.0245
    177.00     -0.0183     -0.0183
    178.00     -0.0121     -0.0121
    179.00     -0.0060     -0.0060
    180.00      0.0001      0.0001
                0.0000      1.0000
   -180.00      0.3308      0.3308
   -179.00      0.3308      0.3308
   -178.00      0.3307      0.3307
   -177.00      0.3306      0.3306
   -176.00      0.3305      0.3305
   -175.00      0.3304      0.3304
   -174.00      0.3302      0.3302
   -173.00      0.3299      0.3299
   -172.00      0.3296      0.3296
   -171.00      0.3294      0.3294
   -170.00      0.3297      0.3297
   -169.00      0.3301      0.3301
   -168.00      0.3304      0.3304
   -167.00      0.3304      0.3304
   -166.00      0.3304      0.3304
   -165.00      0.3303      0.3303
   -164.00      0.3297      0.3297
   -163.00      0.3285      0.3285
   -162.00      0.3279      0.3279
   -161.00      0.3278      0.3278
   -160.00      0.3277      0.3277
   -159.00      0.3277      0.3277
   -158.00      0.3287      0.3287
   -157.00      0.3308      0.3308
   -156.00      0.3329      0.3329
   -155.00      0.3344      0.3344
   -154.00      0.3359      0.3359
   -153.00      0.3374      0.3374
   -152.00      0.3386      0.3386
   -151.00      0.3398      0.3398
   -150.00      0.3413      0.3413
   -149.00      0.3440      0.3440
   -148.00      0.3475      0.3475
   -147.00      0.3500      0.3500
   -146.00      0.3511      0.3511
   -145.00      0.3519      0.3519
   -144.00      0.3529      0.3529
   -143.00      0.3545      0.3545
   -142.00      0.3563      0.3563
   -141.00      0.3582      0.3582
   -140.00      0.3601      0.3601
   -139.00      0.3621      0.3621
   -138.00      0.3641      0.3641
   -137.00      0.3661      0.3661
   -136.00      0.3682      0.3682
   -135.00      0.3702      0.3702
   -134.00      0.3723      0.3723
   -133.00      0.3743      0.3743
   -132.00      0.3764      0.3764
   -131.00      0.3784      0.3784
   -130.00      0.3804      0.3804
   -129.00      0.3824      0.3824
   -128.00      0.3843      0.3843
   -127.00      0.3862      0.3862
   -126.00      0.3881      0.3881
   -125.00      0.3900      0.3900
   -124.00      0.3920      0.3920
   -123.00      0.3940      0.3940
   -122.00      0.3962      0.3962
   -121.00      0.3985      0.3985
   -120.00      0.4005      0.4005
   -119.00      0.4021      0.4021
   -118.00      0.4035      0.4035
   -117.00      0.4049      0.4049
   -116.00      0.4065      0.4065
   -115.00      0.4081      0.4081
   -114.00      0.4099      0.4099
   -113.00      0.4118      0.4118
   -112.00      0.4138      0.4138
   -111.00      0.4155      0.4155
   -110.00      0.4170      0.4170
   -109.00      0.4183      0.4183
   -108.00      0.4195      0.4195
   -107.00      0.4206      0.4206
   -106.00      0.4216      0.4216
   -105.00      0.4228      0.4228
   -104.00      0.4241      0.4241
   -103.00      0.4256      0.4256
   -102.00      0.4269      0.4269
   -101.00      0.4283      0.4283
   -100.00      0.4296      0.4296
    -99.00      0.4305      0.4305
    -98.00      0.4310      0.4310
    -97.00      0.4314      0.4314
    -96.00      0.4318      0.4318
    -95.00      0.4324      0.4324
    -94.00      0.4332      0.4332
    -93.00      0.4340      0.4340
    -92.00      0.4352      0.4352
    -91.00      0.4366      0.4366
    -90.00      0.4372      0.4372
    -89.00      0.4366      0.4366
    -88.00      0.4352      0.4352
    -87.00      0.4340      0.4340
    -86.00      0.4332      0.4332
    -85.00      0.4324      0.4324
    -84.00      0.4318      0.4318
    -83.00      0.4314      0.4314
    -82.00      0.4310      0.4310
    -81.00      0.4305      0.4305
    -80.00      0.4296      0.4296
    -79.00      0.4283      0.4283
    -78.00      0.4269      0.4269
    -77.00      0.4256      0.4256
    -76.00      0.4241      0.4241
    -75.00      0.4228      0.4228
    -74.00      0.4216      0.4216
    -73.00      0.4206      0.4206
    -72.00      0.4195      0.4195
    -71.00      0.4183      0.4183
    -70.00      0.4170      0.4170
    -69.00      0.4155      0.4155
    -68.00      0.4138      0.4138
    -67.00      0.4118      0.4118
    -66.00      0.4099      0.4099
    -65.00      0.4081      0.4081
    -64.00      0.4065      0.4065
    -63.00      0.4049      0.4049
    -62.00      0.4035      0.4035
    -61.00      0.4021      0.4021
    -60.00      0.4005      0.4005
    -59.00      0.3985      0.3985
    -58.00      0.3962      0.3962
    -57.00      0.3940      0.3940
    -56.00      0.3920      0.3920
    -55.00      0.3900      0.3900
    -54.00      0.3881      0.3881
    -53.00      0.3862      0.3862
    -52.00      0.3843      0.3843
    -51.00      0.3824      0.3824
    -50.00      0.3804      0.3804
    -49.00      0.3784      0.3784
    -48.00      0.3764      0.3764
    -47.00      0.3743      0.3743
    -46.00      0.3723      0.3723
    -45.00      0.3702      0.3702
    -44.00      0.3682      0.3682
    -43.00      0.3661      0.3661
    -42.00      0.3641      0.3641
    -41.00      0.3621      0.3621
    -40.00      0.3601      0.3601
    -39.00      0.3582      0.3582
    -38.00      0.3563      0.3563
    -37.00      0.3545      0.3545
    -36.00      0.3529      0.3529
    -35.00      0.3519      0.3519
    -34.00      0.3510      0.3510
    -33.00      0.3500      0.3500
    -32.00      0.3486      0.3486
    -31.00      0.3470      0.3470
    -30.00      0.3463      0.3463
    -29.00      0.3483      0.3483
    -28.00      0.3496      0.3496
    -27.00      0.3486      0.3486
    -26.00      0.3470      0.3470
    -25.00      0.3453      0.3453
    -24.00      0.3437      0.3437
    -23.00      0.3418      0.3418
    -22.00      0.3400      0.3400
    -21.00      0.3381      0.3381
    -20.00      0.3362      0.3362
    -19.00      0.3359      0.3359
    -18.00      0.3353      0.3353
    -17.00      0.3348      0.3348
    -16.00      0.3346      0.3346
    -15.00      0.3341      0.3341
    -14.00      0.3340      0.3340
    -13.00      0.3337      0.3337
    -12.00      0.3337      0.3337
    -11.00      0.3335      0.3335
    -10.00      0.3332      0.3332
     -9.00      0.3332      0.3332
     -8.00      0.3333      0.3333
     -7.00      0.3334      0.3334
     -6.00      0.3335      0.3335
     -5.00      0.3336      0.3336
     -4.00      0.3338      0.3338
     -3.00      0.3338      0.3338
     -2.00      0.3339      0.3339
     -1.00      0.3340      0.3340
      0.00      0.3340      0.3340
      1.00      0.3341      0.3341
      2.00      0.3341      0.3341
      3.00      0.3341      0.3341
      4.00      0.3341      0.3341
      5.00      0.3342      0.3342
      6.00      0.3341      0.3341
      7.00      0.3342      0.3342
      8.00      0.3341      0.3341
      9.00      0.3341      0.3341
     10.00      0.3340      0.3340
     11.00      0.3338      0.3338
     12.00      0.3335      0.3335
     13.00      0.3329      0.3329
     14.00      0.3323      0.3323
     15.00      0.3319      0.3319
     16.00      0.3318      0.3318
     17.00      0.3316      0.3316
     18.00      0.3320      0.3320
     19.00      0.3322      0.3322
     20.00      0.3325      0.3325
     21.00      0.3331      0.3331
     22.00      0.3333      0.3333
     23.00      0.3333      0.3333
     24.00      0.3333      0.3333
     25.00      0.3343      0.3343
     26.00      0.3359      0.3359
     27.00      0.3376      0.3376
     28.00      0.3392      0.3392
     29.00      0.3409      0.3409
     30.00      0.3428      0.3428
     31.00      0.3452      0.3452
     32.00      0.3478      0.3478
     33.00      0.3500      0.3500
     34.00      0.3516      0.3516
     35.00      0.3530      0.3530
     36.00      0.3544      0.3544
     37.00      0.3560      0.3560
     38.00      0.3577      0.3577
     39.00      0.3594      0.3594
     40.00      0.3612      0.3612
     41.00      0.3631      0.3631
     42.00      0.3651      0.3651
     43.00      0.3670      0.3670
     44.00      0.3689      0.3689
     45.00      0.3708      0.3708
     46.00      0.3728      0.3728
     47.00      0.3747      0.3747
     48.00      0.3766      0.3766
     49.00      0.3785      0.3785
     50.00      0.3805      0.3805
     51.00      0.3824      0.3824
     52.00      0.3843      0.3843
     53.00      0.3861      0.3861
     54.00      0.3881      0.3881
     55.00      0.3900      0.3900
     56.00      0.3920      0.3920
     57.00      0.3940      0.3940
     58.00      0.3962      0.3962
     59.00      0.3985      0.3985
     60.00      0.4005      0.4005
     61.00      0.4021      0.4021
     62.00      0.4035      0.4035
     63.00      0.4049      0.4049
     64.00      0.4065      0.4065
     65.00      0.4081      0.4081
     66.00      0.4099      0.4099
     67.00      0.4118      0.4118
     68.00      0.4138      0.4138
     69.00      0.4155      0.4155
     70.00      0.4170      0.4170
     71.00      0.4183      0.4183
     72.00      0.4195      0.4195
     73.00      0.4206      0.4206
     74.00      0.4216      0.4216
     75.00      0.4228      0.4228
     76.00      0.4241      0.4241
     77.00      0.4256      0.4256
     78.00      0.4269      0.4269
     79.00      0.4283      0.4283
     80.00      0.4296      0.4296
     81.00      0.4305      0.4305
     82.00      0.4310      0.4310
     83.00      0.4314      0.4314
     84.00      0.4318      0.4318
     85.00      0.4324      0.4324
     86.00      0.4332      0.4332
     87.00      0.4340      0.4340
     88.00      0.4352      0.4352
     89.00      0.4366      0.4366
     90.00      0.4372      0.4372
     91.00      0.4366      0.4366
     92.00      0.4352      0.4352
     93.00      0.4340      0.4340
     94.00      0.4332      0.4332
     95.00      0.4324      0.4324
     96.00      0.4318      0.4318
     97.00      0.4314      0.4314
     98.00      0.4310      0.4310
     99.00      0.4305      0.4305
    100.00      0.4296      0.4296
    101.00      0.4283      0.4283
    102.00      0.4269      0.4269
    103.00      0.4256      0.4256
    104.00      0.4241      0.4241
    105.00      0.4228      0.4228
    106.00      0.4216      0.4216
    107.00      0.4206      0.4206
    108.00      0.4195      0.4195
    109.00      0.4183      0.4183
    110.00      0.4170      0.4170
    111.00      0.4155      0.4155
    112.00      0.4138      0.4138
    113.00      0.4118      0.4118
    114.00      0.4099      0.4099
    115.00      0.4081      0.4081
    116.00      0.4065      0.4065
    117.00      0.4049      0.4049
    118.00      0.4035      0.4035
    119.00      0.4021      0.4021
    120.00      0.4005      0.4005
    121.00      0.3985      0.3985
    122.00      0.3962      0.3962
    123.00      0.3940      0.3940
    124.00      0.3920      0.3920
    125.00      0.3900      0.3900
    126.00      0.3881      0.3881
    127.00      0.3862      0.3862
    128.00      0.3843      0.3843
    129.00      0.3824      0.3824
    130.00      0.3804      0.3804
    131.00      0.3784      0.3784
    132.00      0.3764      0.3764
    133.00      0.3743      0.3743
    134.00      0.3723      0.3723
    135.00      0.3702      0.3702
    136.00      0.3682      0.3682
    137.00      0.3661      0.3661
    138.00      0.3641      0.3641
    139.00      0.3621      0.3621
    140.00      0.3601      0.3601
    141.00      0.3582      0.3582
    142.00      0.3563      0.3563
    143.00      0.3545      0.3545
    144.00      0.3529      0.3529
    145.00      0.3519      0.3519
    146.00      0.3511      0.3511
    147.00      0.3500      0.3500
    148.00      0.3475      0.3475
    149.00      0.3440      0.3440
    150.00      0.3413      0.3413
    151.00      0.3398      0.3398
    152.00      0.3386      0.3386
    153.00      0.3374      0.3374
    154.00      0.3359      0.3359
    155.00      0.3344      0.3344
    156.00      0.3329      0.3329
    157.00      0.3308      0.3308
    158.00      0.3287      0.3287
    159.00      0.3277      0.3277
    160.00      0.3277      0.3277
    161.00      0.3278      0.3278
    162.00      0.3279      0.3279
    163.00      0.3285      0.3285
    164.00      0.3297      0.3297
    165.00      0.3303      0.3303
    166.00      0.3304      0.3304
    167.00      0.3304      0.3304
    168.00      0.3304      0.3304
    169.00      0.3301      0.3301
    170.00      0.3297      0.3297
    171.00      0.3294      0.3294
    172.00      0.3296      0.3296
    173.00      0.3299      0.3299
    174.00      0.3302      0.3302
    175.00      0.3304      0.3304
    176.00      0.3305      0.3305
    177.00      0.3306      0.3306
    178.00      0.3307      0.3307
    179.00      0.3308      0.3308
    180.00      0.3308      0.3308
                0.0000      1.0000
   -180.00     -0.0001     -0.0001
   -179.00      0.0016      0.0016
   -178.00      0.0033      0.0033
   -177.00      0.0051      0.0051
   -176.00      0.0069      0.0069
   -175.00      0.0087      0.0087
   -174.00      0.0105      0.0105
   -173.00      0.0127      0.0127
   -172.00      0.0149      0.0149
   -171.00      0.0159      0.0159
   -170.00      0.0159      0.0159
   -169.00      0.0158      0.0158
   -168.00      0.0156      0.0156
   -167.00      0.0150      0.0150
   -166.00      0.0138      0.0138
   -165.00      0.0125      0.0125
   -164.00      0.0115      0.0115
   -163.00      0.0105      0.0105
   -162.00      0.0094      0.0094
   -161.00      0.0083      0.0083
   -160.00      0.0070      0.0070
   -159.00      0.0057      0.0057
   -158.00      0.0040      0.0040
   -157.00      0.0021      0.0021
   -156.00      0.0012      0.0012
   -155.00      0.0012      0.0012
   -154.00      0.0011      0.0011
   -153.00      0.0011      0.0011
   -152.00      0.0011      0.0011
   -151.00      0.0010      0.0010
   -150.00      0.0010      0.0010
   -149.00      0.0010      0.0010
   -148.00      0.0009      0.0009
   -147.00      0.0009      0.0009
   -146.00      0.0009      0.0009
   -145.00      0.0008      0.0008
   -144.00      0.0008      0.0008
   -143.00      0.0008      0.0008
   -142.00      0.0007      0.0007
   -141.00      0.0007      0.0007
   -140.00      0.0007      0.0007
   -139.00      0.0007      0.0007
   -138.00      0.0007      0.0007
   -137.00      0.0007      0.0007
   -136.00      0.0007      0.0007
   -135.00      0.0007      0.0007
   -134.00      0.0006      0.0006
   -133.00      0.0006      0.0006
   -132.00      0.0006      0.0006
   -131.00      0.0006      0.0006
   -130.00      0.0006      0.0006
   -129.00      0.0006      0.0006
   -128.00      0.0006      0.0006
   -127.00      0.0006      0.0006
   -126.00      0.0007      0.0007
   -125.00      0.0007      0.0007
   -124.00      0.0007      0.0007
   -123.00      0.0007      0.0007
   -122.00      0.0007      0.0007
   -121.00      0.0007      0.0007
   -120.00      0.0007      0.0007
   -119.00      0.0007      0.0007
   -118.00      0.0007      0.0007
   -117.00      0.0007      0.0007
   -116.00      0.0007      0.0007
   -115.00      0.0007      0.0007
   -114.00      0.0007      0.0007
   -113.00      0.0007      0.0007
   -112.00      0.0008      0.0008
   -111.00      0.0008      0.0008
   -110.00      0.0008      0.0008
   -109.00      0.0008      0.0008
   -108.00      0.0008      0.0008
   -107.00      0.0008      0.0008
   -106.00      0.0008      0.0008
   -105.00      0.0008      0.0008
   -104.00      0.0008      0.0008
   -103.00      0.0008      0.0008
   -102.00      0.0008      0.0008
   -101.00      0.0008      0.0008
   -100.00      0.0008      0.0008
    -99.00      0.0008      0.0008
    -98.00      0.0008      0.0008
    -97.00      0.0008      0.0008
    -96.00      0.0008      0.0008
    -95.00      0.0008      0.0008
    -94.00      0.0008      0.0008
    -93.00      0.0008      0.0008
    -92.00      0.0008      0.0008
    -91.00      0.0008      0.0008
    -90.00      0.0008      0.0008
    -89.00      0.0008      0.0008
    -88.00      0.0008      0.0008
    -87.00      0.0008      0.0008
    -86.00      0.0008      0.0008
    -85.00      0.0008      0.0008
    -84.00      0.0008      0.0008
    -83.00      0.0008      0.0008
    -82.00      0.0007      0.0007
    -81.00      0.0007      0.0007
    -80.00      0.0007      0.0007
    -79.00      0.0007      0.0007
    -78.00      0.0007      0.0007
    -77.00      0.0007      0.0007
    -76.00      0.0006      0.0006
    -75.00      0.0006      0.0006