IEA-15-240-RWT_AeroDyn15_Polar_31; 2 361 2 361 2 361
                0.0000      1.0000
   -180.00      0.0000      0.0000
   -179.00      0.0255      0.0255
   -178.00      0.0511      0.0511
   -177.00      0.0766      0.0766
   -176.00      0.1022      0.1022
   -175.00      0.1277      0.1277
   -174.00      0.1532      0.1532
   -173.00      0.1788      0.1788
   -172.00      0.2043      0.2043
   -171.00      0.2299      0.2299
   -170.00      0.2554      0.2554
   -169.00      0.2809      0.2809
   -168.00      0.3065      0.3065
   -167.00      0.3320      0.3320
   -166.00      0.3576      0.3576
   -165.00      0.3831      0.3831
   -164.00      0.4086      0.4086
   -163.00      0.4342      0.4342
   -162.00      0.4597      0.4597
   -161.00      0.4852      0.4852
   -160.00      0.5108      0.5108
   -159.00      0.5363      0.5363
   -158.00      0.5619      0.5619
   -157.00      0.5874      0.5874
   -156.00      0.6129      0.6129
   -155.00      0.6385      0.6385
   -154.00      0.6640      0.6640
   -153.00      0.6896      0.6896
   -152.00      0.7167      0.7167
   -151.00      0.7439      0.7439
   -150.00      0.7662      0.7662
   -149.00      0.7853      0.7853
   -148.00      0.8016      0.8016
   -147.00      0.8086      0.8086
   -146.00      0.8037      0.8037
   -145.00      0.7931      0.7931
   -144.00      0.7825      0.7825
   -143.00      0.7741      0.7741
   -142.00      0.7657      0.7657
   -141.00      0.7573      0.7573
   -140.00      0.7487      0.7487
   -139.00      0.7401      0.7401
   -138.00      0.7313      0.7313
   -137.00      0.7223      0.7223
   -136.00      0.7133      0.7133
   -135.00      0.7040      0.7040
   -134.00      0.6944      0.6944
   -133.00      0.6845      0.6845
   -132.00      0.6743      0.6743
   -131.00      0.6636      0.6636
   -130.00      0.6527      0.6527
   -129.00      0.6415      0.6415
   -128.00      0.6301      0.6301
   -127.00      0.6184      0.6184
   -126.00      0.6064      0.6064
   -125.00      0.5942      0.5942
   -124.00      0.5817      0.5817
   -123.00      0.5688      0.5688
   -122.00      0.5552      0.5552
   -121.00      0.5412      0.5412
   -120.00      0.5269      0.5269
   -119.00      0.5124      0.5124
   -118.00      0.4975      0.4975
   -117.00      0.4824      0.4824
   -116.00      0.4670      0.4670
   -115.00      0.4514      0.4514
   -114.00      0.4354      0.4354
   -113.00      0.4192      0.4192
   -112.00      0.4026      0.4026
   -111.00      0.3858      0.3858
   -110.00      0.3686      0.3686
   -109.00      0.3511      0.3511
   -108.00      0.3335      0.3335
   -107.00      0.3157      0.3157
   -106.00      0.2977      0.2977
   -105.00      0.2796      0.2796
   -104.00      0.2614      0.2614
   -103.00      0.2431      0.2431
   -102.00      0.2246      0.2246
   -101.00      0.2059      0.2059
   -100.00      0.1872      0.1872
    -99.00      0.1684      0.1684
    -98.00      0.1496      0.1496
    -97.00      0.1307      0.1307
    -96.00      0.1119      0.1119
    -95.00      0.0932      0.0932
    -94.00      0.0744      0.0744
    -93.00      0.0557      0.0557
    -92.00      0.0371      0.0371
    -91.00      0.0186      0.0186
    -90.00     -0.0000     -0.0000
    -89.00     -0.0186     -0.0186
    -88.00     -0.0371     -0.0371
    -87.00     -0.0557     -0.0557
    -86.00     -0.0744     -0.0744
    -85.00     -0.0932     -0.0932
    -84.00     -0.1119     -0.1119
    -83.00     -0.1307     -0.1307
    -82.00     -0.1496     -0.1496
    -81.00     -0.1684     -0.1684
    -80.00     -0.1872     -0.1872
    -79.00     -0.2059     -0.2059
    -78.00     -0.2246     -0.2246
    -77.00     -0.2431     -0.2431
    -76.00     -0.2614     -0.2614
    -75.00     -0.2796     -0.2796
    -74.00     -0.2977     -0.2977
    -73.00     -0.3157     -0.3157
    -72.00     -0.3335     -0.3335
    -71.00     -0.3511     -0.3511
    -70.00     -0.3686     -0.3686
    -69.00     -0.3858     -0.3858
    -68.00     -0.4026     -0.4026
    -67.00     -0.4192     -0.4192
    -66.00     -0.4354     -0.4354
    -65.00     -0.4514     -0.4514
    -64.00     -0.4670     -0.4670
    -63.00     -0.4824     -0.4824
    -62.00     -0.4975     -0.4975
    -61.00     -0.5124     -0.5124
    -60.00     -0.5269     -0.5269
    -59.00     -0.5412     -0.5412
    -58.00     -0.5552     -0.5552
    -57.00     -0.5688     -0.5688
    -56.00     -0.5817     -0.5817
    -55.00     -0.5942     -0.5942
    -54.00     -0.6064     -0.6064
    -53.00     -0.6184     -0.6184
    -52.00     -0.6301     -0.6301
    -51.00     -0.6415     -0.6415
    -50.00     -0.6527     -0.6527
    -49.00     -0.6636     -0.6636
    -48.00     -0.6743     -0.6743
    -47.00     -0.6866     -0.6866
    -46.00     -0.6986     -0.6986
    -45.00     -0.7040     -0.7040
    -44.00     -0.7019     -0.7019
    -43.00     -0.6975     -0.6975
    -42.00     -0.6938     -0.6938
    -41.00     -0.6911     -0.6911
    -40.00     -0.6889     -0.6889
    -39.00     -0.6879     -0.6879
    -38.00     -0.6881     -0.6881
    -37.00     -0.6886     -0.6886
    -36.00     -0.6894     -0.6894
    -35.00     -0.6910     -0.6910
    -34.00     -0.6941     -0.6941
    -33.00     -0.6991     -0.6991
    -32.00     -0.7246     -0.7246
    -31.00     -0.7764     -0.7764
    -30.00     -0.8356     -0.8356
    -29.00     -0.9026     -0.9026
    -28.00     -0.9649     -0.9649
    -27.00     -0.9826     -0.9826
    -26.00     -0.9963     -0.9963
    -25.00     -1.0115     -1.0115
    -24.00     -1.0294     -1.0294
    -23.00     -1.0415     -1.0415
    -22.00     -1.0534     -1.0534
    -21.00     -1.0654     -1.0654
    -20.00     -1.0759     -1.0759
    -19.00     -1.0760     -1.0760
    -18.00     -1.0740     -1.0740
    -17.00     -1.0645     -1.0645
    -16.00     -1.0544     -1.0544
    -15.00     -1.0464     -1.0464
    -14.00     -1.0378     -1.0378
    -13.00     -1.0302     -1.0302
    -12.00     -1.0195     -1.0195
    -11.00     -0.9808     -0.9808
    -10.00     -0.9381     -0.9381
     -9.00     -0.8069     -0.8069
     -8.00     -0.6758     -0.6758
     -7.00     -0.5409     -0.5409
     -6.00     -0.4060     -0.4060
     -5.00     -0.2744     -0.2744
     -4.00     -0.1433     -0.1433
     -3.00     -0.0140     -0.0140
     -2.00      0.1152      0.1152
     -1.00      0.2435      0.2435
      0.00      0.3708      0.3708
      1.00      0.4973      0.4973
      2.00      0.6230      0.6230
      3.00      0.7474      0.7474
      4.00      0.8707      0.8707
      5.00      0.9922      0.9922
      6.00      1.1117      1.1117
      7.00      1.2286      1.2286
      8.00      1.3422      1.3422
      9.00      1.4504      1.4504
     10.00      1.5547      1.5547
     11.00      1.6508      1.6508
     12.00      1.7388      1.7388
     13.00      1.8150      1.8150
     14.00      1.8702      1.8702
     15.00      1.8987      1.8987
     16.00      1.8932      1.8932
     17.00      1.8216      1.8216
     18.00      1.7453      1.7453
     19.00      1.6492      1.6492
     20.00      1.5559      1.5559
     21.00      1.4918      1.4918
     22.00      1.4319      1.4319
     23.00      1.3720      1.3720
     24.00      1.3126      1.3126
     25.00      1.2666      1.2666
     26.00      1.2272      1.2272
     27.00      1.1893      1.1893
     28.00      1.1528      1.1528
     29.00      1.1229      1.1229
     30.00      1.0941      1.0941
     31.00      1.0688      1.0688
     32.00      1.0462      1.0462
     33.00      1.0314      1.0314
     34.00      1.0235      1.0235
     35.00      1.0178      1.0178
     36.00      1.0138      1.0138
     37.00      1.0105      1.0105
     38.00      1.0079      1.0079
     39.00      1.0068      1.0068
     40.00      1.0069      1.0069
     41.00      1.0071      1.0071
     42.00      1.0071      1.0071
     43.00      1.0070      1.0070
     44.00      1.0065      1.0065
     45.00      1.0057      1.0057
     46.00      0.9975      0.9975
     47.00      0.9806      0.9806
     48.00      0.9632      0.9632
     49.00      0.9481      0.9481
     50.00      0.9324      0.9324
     51.00      0.9164      0.9164
     52.00      0.9001      0.9001
     53.00      0.8834      0.8834
     54.00      0.8664      0.8664
     55.00      0.8489      0.8489
     56.00      0.8310      0.8310
     57.00      0.8125      0.8125
     58.00      0.7932      0.7932
     59.00      0.7732      0.7732
     60.00      0.7528      0.7528
     61.00      0.7320      0.7320
     62.00      0.7107      0.7107
     63.00      0.6891      0.6891
     64.00      0.6672      0.6672
     65.00      0.6448      0.6448
     66.00      0.6220      0.6220
     67.00      0.5988      0.5988
     68.00      0.5752      0.5752
     69.00      0.5512      0.5512
     70.00      0.5266      0.5266
     71.00      0.5016      0.5016
     72.00      0.4764      0.4764
     73.00      0.4510      0.4510
     74.00      0.4253      0.4253
     75.00      0.3995      0.3995
     76.00      0.3735      0.3735
     77.00      0.3472      0.3472
     78.00      0.3208      0.3208
     79.00      0.2942      0.2942
     80.00      0.2674      0.2674
     81.00      0.2405      0.2405
     82.00      0.2137      0.2137
     83.00      0.1868      0.1868
     84.00      0.1599      0.1599
     85.00      0.1331      0.1331
     86.00      0.1063      0.1063
     87.00      0.0796      0.0796
     88.00      0.0520      0.0520
     89.00      0.0244      0.0244
     90.00      0.0000      0.0000
     91.00     -0.0200     -0.0200
     92.00     -0.0378     -0.0378
     93.00     -0.0557     -0.0557
     94.00     -0.0744     -0.0744
     95.00     -0.0932     -0.0932
     96.00     -0.1119     -0.1119
     97.00     -0.1307     -0.1307
     98.00     -0.1496     -0.1496
     99.00     -0.1684     -0.1684
    100.00     -0.1872     -0.1872
    101.00     -0.2059     -0.2059
    102.00     -0.2246     -0.2246
    103.00     -0.2431     -0.2431
    104.00     -0.2614     -0.2614
    105.00     -0.2796     -0.2796
    106.00     -0.2977     -0.2977
    107.00     -0.3157     -0.3157
    108.00     -0.3335     -0.3335
    109.00     -0.3511     -0.3511
    110.00     -0.3686     -0.3686
    111.00     -0.3858     -0.3858
    112.00     -0.4026     -0.4026
    113.00     -0.4192     -0.4192
    114.00     -0.4354     -0.4354
    115.00     -0.4514     -0.4514
    116.00     -0.4670     -0.4670
    117.00     -0.4824     -0.4824
    118.00     -0.4975     -0.4975
    119.00     -0.5124     -0.5124
    120.00     -0.5269     -0.5269
    121.00     -0.5412     -0.5412
    122.00     -0.5552     -0.5552
    123.00     -0.5688     -0.5688
    124.00     -0.5817     -0.5817
    125.00     -0.5942     -0.5942
    126.00     -0.6064     -0.6064
    127.00     -0.6184     -0.6184
    128.00     -0.6301     -0.6301
    129.00     -0.6415     -0.6415
    130.00     -0.6527     -0.6527
    131.00     -0.6636     -0.6636
    132.00     -0.6743     -0.6743
    133.00     -0.6845     -0.6845
    134.00     -0.6944     -0.6944
    135.00     -0.7040     -0.7040
    136.00     -0.7133     -0.7133
    137.00     -0.7223     -0.7223
    138.00     -0.7313     -0.7313
    139.00     -0.7401     -0.7401
    140.00     -0.7487     -0.7487
    141.00     -0.7573     -0.7573
    142.00     -0.7657     -0.7657
    143.00     -0.7741     -0.7741
    144.00     -0.7825     -0.7825
    145.00     -0.7931     -0.7931
    146.00     -0.8037     -0.8037
    147.00     -0.8086     -0.8086
    148.00     -0.8016     -0.8016
    149.00     -0.7853     -0.7853
    150.00     -0.7662     -0.7662
    151.00     -0.7439     -0.7439
    152.00     -0.7167     -0.7167
    153.00     -0.6896     -0.6896
    154.00     -0.6640     -0.6640
    155.00     -0.6385     -0.6385
    156.00     -0.6129     -0.6129
    157.00     -0.5874     -0.5874
    158.00     -0.5619     -0.5619
    159.00     -0.5363     -0.5363
    160.00     -0.5108     -0.5108
    161.00     -0.4852     -0.4852
    162.00     -0.4597     -0.4597
    163.00     -0.4342     -0.4342
    164.00     -0.4086     -0.4086
    165.00     -0.3831     -0.3831
    166.00     -0.3576     -0.3576
    167.00     -0.3320     -0.3320
    168.00     -0.3065     -0.3065
    169.00     -0.2809     -0.2809
    170.00     -0.2554     -0.2554
    171.00     -0.2299     -0.2299
    172.00     -0.2043     -0.2043
    173.00     -0.1788     -0.1788
    174.00     -0.1532     -0.1532
    175.00     -0.1277     -0.1277
    176.00     -0.1022     -0.1022
    177.00     -0.0766     -0.0766
    178.00     -0.0511     -0.0511
    179.00     -0.0255     -0.0255
    180.00      0.0000      0.0000
                0.0000      1.0000
   -180.00      0.0118      0.0118
   -179.00      0.0120      0.0120
   -178.00      0.0125      0.0125
   -177.00      0.0132      0.0132
   -176.00      0.0141      0.0141
   -175.00      0.0153      0.0153
   -174.00      0.0168      0.0168
   -173.00      0.0184      0.0184
   -172.00      0.0203      0.0203
   -171.00      0.0227      0.0227
   -170.00      0.0258      0.0258
   -169.00      0.0299      0.0299
   -168.00      0.0354      0.0354
   -167.00      0.0444      0.0444
   -166.00      0.0572      0.0572
   -165.00      0.0707      0.0707
   -164.00      0.0841      0.0841
   -163.00      0.0985      0.0985
   -162.00      0.1135      0.1135
   -161.00      0.1293      0.1293
   -160.00      0.1459      0.1459
   -159.00      0.1632      0.1632
   -158.00      0.1812      0.1812
   -157.00      0.2000      0.2000
   -156.00      0.2193      0.2193
   -155.00      0.2391      0.2391
   -154.00      0.2596      0.2596
   -153.00      0.2806      0.2806
   -152.00      0.3022      0.3022
   -151.00      0.3243      0.3243
   -150.00      0.3470      0.3470
   -149.00      0.3702      0.3702
   -148.00      0.3940      0.3940
   -147.00      0.4181      0.4181
   -146.00      0.4423      0.4423
   -145.00      0.4668      0.4668
   -144.00      0.4917      0.4917
   -143.00      0.5171      0.5171
   -142.00      0.5429      0.5429
   -141.00      0.5688      0.5688
   -140.00      0.5947      0.5947
   -139.00      0.6209      0.6209
   -138.00      0.6471      0.6471
   -137.00      0.6735      0.6735
   -136.00      0.6999      0.6999
   -135.00      0.7264      0.7264
   -134.00      0.7529      0.7529
   -133.00      0.7795      0.7795
   -132.00      0.8059      0.8059
   -131.00      0.8322      0.8322
   -130.00      0.8584      0.8584
   -129.00      0.8844      0.8844
   -128.00      0.9102      0.9102
   -127.00      0.9359      0.9359
   -126.00      0.9614      0.9614
   -125.00      0.9867      0.9867
   -124.00      1.0118      1.0118
   -123.00      1.0364      1.0364
   -122.00      1.0605      1.0605
   -121.00      1.0841      1.0841
   -120.00      1.1073      1.1073
   -119.00      1.1300      1.1300
   -118.00      1.1523      1.1523
   -117.00      1.1741      1.1741
   -116.00      1.1956      1.1956
   -115.00      1.2165      1.2165
   -114.00      1.2369      1.2369
   -113.00      1.2568      1.2568
   -112.00      1.2761      1.2761
   -111.00      1.2946      1.2946
   -110.00      1.3120      1.3120
   -109.00      1.3286      1.3286
   -108.00      1.3445      1.3445
   -107.00      1.3599      1.3599
   -106.00      1.3747      1.3747
   -105.00      1.3888      1.3888
   -104.00      1.4023      1.4023
   -103.00      1.4152      1.4152
   -102.00      1.4270      1.4270
   -101.00      1.4378      1.4378
   -100.00      1.4477      1.4477
    -99.00      1.4565      1.4565
    -98.00      1.4644      1.4644
    -97.00      1.4715      1.4715
    -96.00      1.4777      1.4777
    -95.00      1.4833      1.4833
    -94.00      1.4882      1.4882
    -93.00      1.4921      1.4921
    -92.00      1.4955      1.4955
    -91.00      1.4983      1.4983
    -90.00      1.4995      1.4995
    -89.00      1.4983      1.4983
    -88.00      1.4955      1.4955
    -87.00      1.4921      1.4921
    -86.00      1.4882      1.4882
    -85.00      1.4833      1.4833
    -84.00      1.4777      1.4777
    -83.00      1.4715      1.4715
    -82.00      1.4644      1.4644
    -81.00      1.4565      1.4565
    -80.00      1.4477      1.4477
    -79.00      1.4378      1.4378
    -78.00      1.4270      1.4270
    -77.00      1.4152      1.4152
    -76.00      1.4023      1.4023
    -75.00      1.3888      1.3888
    -74.00      1.3747      1.3747
    -73.00      1.3599      1.3599
    -72.00      1.3445      1.3445
    -71.00      1.3286      1.3286
    -70.00      1.3120      1.3120
    -69.00      1.2946      1.2946
    -68.00      1.2761      1.2761
    -67.00      1.2568      1.2568
    -66.00      1.2369      1.2369
    -65.00      1.2165      1.2165
    -64.00      1.1956      1.1956
    -63.00      1.1741      1.1741
    -62.00      1.1523      1.1523
    -61.00      1.1300      1.1300
    -60.00      1.1073      1.1073
    -59.00      1.0841      1.0841
    -58.00      1.0605      1.0605
    -57.00      1.0364      1.0364
    -56.00      1.0118      1.0118
    -55.00      0.9867      0.9867
    -54.00      0.9614      0.9614
    -53.00      0.9359      0.9359
    -52.00      0.9102      0.9102
    -51.00      0.8844      0.8844
    -50.00      0.8584      0.8584
    -49.00      0.8322      0.8322
    -48.00      0.8059      0.8059
    -47.00      0.7795      0.7795
    -46.00      0.7529      0.7529
    -45.00      0.7264      0.7264
    -44.00      0.6999      0.6999
    -43.00      0.6735      0.6735
    -42.00      0.6471      0.6471
    -41.00      0.6209      0.6209
    -40.00      0.5947      0.5947
    -39.00      0.5688      0.5688
    -38.00      0.5429      0.5429
    -37.00      0.5171      0.5171
    -36.00      0.4917      0.4917
    -35.00      0.4680      0.4680
    -34.00      0.4447      0.4447
    -33.00      0.4181      0.4181
    -32.00      0.3853      0.3853
    -31.00      0.3476      0.3476
    -30.00      0.3077      0.3077
    -29.00      0.2649      0.2649
    -28.00      0.2246      0.2246
    -27.00      0.2047      0.2047
    -26.00      0.1871      0.1871
    -25.00      0.1694      0.1694
    -24.00      0.1522      0.1522
    -23.00      0.1385      0.1385
    -22.00      0.1248      0.1248
    -21.00      0.1112      0.1112
    -20.00      0.0980      0.0980
    -19.00      0.0878      0.0878
    -18.00      0.0781      0.0781
    -17.00      0.0698      0.0698
    -16.00      0.0617      0.0617
    -15.00      0.0542      0.0542
    -14.00      0.0468      0.0468
    -13.00      0.0398      0.0398
    -12.00      0.0330      0.0330
    -11.00      0.0266      0.0266
    -10.00      0.0203      0.0203
     -9.00      0.0161      0.0161
     -8.00      0.0121      0.0121
     -7.00      0.0105      0.0105
     -6.00      0.0093      0.0093
     -5.00      0.0088      0.0088
     -4.00      0.0085      0.0085
     -3.00      0.0083      0.0083
     -2.00      0.0082      0.0082
     -1.00      0.0082      0.0082
      0.00      0.0082      0.0082
      1.00      0.0083      0.0083
      2.00      0.0085      0.0085
      3.00      0.0088      0.0088
      4.00      0.0091      0.0091
      5.00      0.0095      0.0095
      6.00      0.0101      0.0101
      7.00      0.0108      0.0108
      8.00      0.0116      0.0116
      9.00      0.0127      0.0127
     10.00      0.0140      0.0140
     11.00      0.0155      0.0155
     12.00      0.0173      0.0173
     13.00      0.0196      0.0196
     14.00      0.0231      0.0231
     15.00      0.0282      0.0282
     16.00      0.0364      0.0364
     17.00      0.0508      0.0508
     18.00      0.0657      0.0657
     19.00      0.0851      0.0851
     20.00      0.1049      0.1049
     21.00      0.1264      0.1264
     22.00      0.1481      0.1481
     23.00      0.1701      0.1701
     24.00      0.1920      0.1920
     25.00      0.2155      0.2155
     26.00      0.2390      0.2390
     27.00      0.2626      0.2626
     28.00      0.2866      0.2866
     29.00      0.3133      0.3133
     30.00      0.3400      0.3400
     31.00      0.3663      0.3663
     32.00      0.3925      0.3925
     33.00      0.4181      0.4181
     34.00      0.4428      0.4428
     35.00      0.4671      0.4671
     36.00      0.4917      0.4917
     37.00      0.5171      0.5171
     38.00      0.5429      0.5429
     39.00      0.5688      0.5688
     40.00      0.5947      0.5947
     41.00      0.6209      0.6209
     42.00      0.6471      0.6471
     43.00      0.6735      0.6735
     44.00      0.6999      0.6999
     45.00      0.7264      0.7264
     46.00      0.7529      0.7529
     47.00      0.7795      0.7795
     48.00      0.8059      0.8059
     49.00      0.8322      0.8322
     50.00      0.8584      0.8584
     51.00      0.8844      0.8844
     52.00      0.9102      0.9102
     53.00      0.9359      0.9359
     54.00      0.9614      0.9614
     55.00      0.9867      0.9867
     56.00      1.0118      1.0118
     57.00      1.0364      1.0364
     58.00      1.0605      1.0605
     59.00      1.0841      1.0841
     60.00      1.1073      1.1073
     61.00      1.1300      1.1300
     62.00      1.1523      1.1523
     63.00      1.1741      1.1741
     64.00      1.1956      1.1956
     65.00      1.2165      1.2165
     66.00      1.2369      1.2369
     67.00      1.2568      1.2568
     68.00      1.2761      1.2761
     69.00      1.2946      1.2946
     70.00      1.3120      1.3120
     71.00      1.3286      1.3286
     72.00      1.3445      1.3445
     73.00      1.3599      1.3599
     74.00      1.3747      1.3747
     75.00      1.3888      1.3888
     76.00      1.4023      1.4023
     77.00      1.4152      1.4152
     78.00      1.4270      1.4270
     79.00      1.4378      1.4378
     80.00      1.4477      1.4477
     81.00      1.4565      1.4565
     82.00      1.4644      1.4644
     83.00      1.4715      1.4715
     84.00      1.4777      1.4777
     85.00      1.4833      1.4833
     86.00      1.4882      1.4882
     87.00      1.4921      1.4921
     88.00      1.4955      1.4955
     89.00      1.4983      1.4983
     90.00      1.4995      1.4995
     91.00      1.4983      1.4983
     92.00      1.4955      1.4955
     93.00      1.4921      1.4921
     94.00      1.4882      1.4882
     95.00      1.4833      1.4833
     96.00      1.4777      1.4777
     97.00      1.4715      1.4715
     98.00      1.4644      1.4644
     99.00      1.4565      1.4565
    100.00      1.4477      1.4477
    101.00      1.4378      1.4378
    102.00      1.4270      1.4270
    103.00      1.4152      1.4152
    104.00      1.4023      1.4023
    105.00      1.3888      1.3888
    106.00      1.3747      1.3747
    107.00      1.3599      1.3599
    108.00      1.3445      1.3445
    109.00      1.3286      1.3286
    110.00      1.3120      1.3120
    111.00      1.2946      1.2946
    112.00      1.2761      1.2761
    113.00      1.2568      1.2568
    114.00      1.2369      1.2369
    115.00      1.2165      1.2165
    116.00      1.1956      1.1956
    117.00      1.1741      1.1741
    118.00      1.1523      1.1523
    119.00      1.1300      1.1300
    120.00      1.1073      1.1073
    121.00      1.0841      1.0841
    122.00      1.0605      1.0605
    123.00      1.0364      1.0364
    124.00      1.0118      1.0118
    125.00      0.9867      0.9867
    126.00      0.9614      0.9614
    127.00      0.9359      0.9359
    128.00      0.9102      0.9102
    129.00      0.8844      0.8844
    130.00      0.8584      0.8584
    131.00      0.8322      0.8322
    132.00      0.8059      0.8059
    133.00      0.7795      0.7795
    134.00      0.7529      0.7529
    135.00      0.7264      0.7264
    136.00      0.6999      0.6999
    137.00      0.6735      0.6735
    138.00      0.6471      0.6471
    139.00      0.6209      0.6209
    140.00      0.5947      0.5947
    141.00      0.5688      0.5688
    142.00      0.5429      0.5429
    143.00      0.5171      0.5171
    144.00      0.4917      0.4917
    145.00      0.4668      0.4668
    146.00      0.4423      0.4423
    147.00      0.4181      0.4181
    148.00      0.3940      0.3940
    149.00      0.3702      0.3702
    150.00      0.3470      0.3470
    151.00      0.3243      0.3243
    152.00      0.3022      0.3022
    153.00      0.2806      0.2806
    154.00      0.2596      0.2596
    155.00      0.2391      0.2391
    156.00      0.2193      0.2193
    157.00      0.2000      0.2000
    158.00      0.1812      0.1812
    159.00      0.1632      0.1632
    160.00      0.1459      0.1459
    161.00      0.1293      0.1293
    162.00      0.1135      0.1135
    163.00      0.0985      0.0985
    164.00      0.0841      0.0841
    165.00      0.0707      0.0707
    166.00      0.0572      0.0572
    167.00      0.0444      0.0444
    168.00      0.0354      0.0354
    169.00      0.0299      0.0299
    170.00      0.0258      0.0258
    171.00      0.0227      0.0227
    172.00      0.0203      0.0203
    173.00      0.0184      0.0184
    174.00      0.0168      0.0168
    175.00      0.0153      0.0153
    176.00      0.0141      0.0141
    177.00      0.0132      0.0132
    178.00      0.0125      0.0125
    179.00      0.0120      0.0120
    180.00      0.0118      0.0118
                0.0000      1.0000
   -180.00      0.0000      0.0000
   -179.00      0.0400      0.0400
   -178.00      0.0800      0.0800
   -177.00      0.1200      0.1200
   -176.00      0.1600      0.1600
   -175.00      0.2000      0.2000
   -174.00      0.2400      0.2400
   -173.00      0.2849      0.2849
   -172.00      0.3299      0.3299
   -171.00      0.3600      0.3600
   -170.00      0.3767      0.3767
   -169.00      0.3893      0.3893
   -168.00      0.3942      0.3942
   -167.00      0.3926      0.3926
   -166.00      0.3890      0.3890
   -165.00      0.3854      0.3854
   -164.00      0.3819      0.3819
   -163.00      0.3783      0.3783
   -162.00      0.3767      0.3767
   -161.00      0.3769      0.3769
   -160.00      0.3775      0.3775
   -159.00      0.3785      0.3785
   -158.00      0.3832      0.3832
   -157.00      0.3923      0.3923
   -156.00      0.4013      0.4013
   -155.00      0.4090      0.4090
   -154.00      0.4167      0.4167
   -153.00      0.4242      0.4242
   -152.00      0.4326      0.4326
   -151.00      0.4409      0.4409
   -150.00      0.4450      0.4450
   -149.00      0.4456      0.4456
   -148.00      0.4459      0.4459
   -147.00      0.4460      0.4460
   -146.00      0.4458      0.4458
   -145.00      0.4454      0.4454
   -144.00      0.4450      0.4450
   -143.00      0.4447      0.4447
   -142.00      0.4443      0.4443
   -141.00      0.4441      0.4441
   -140.00      0.4442      0.4442
   -139.00      0.4444      0.4444
   -138.00      0.4446      0.4446
   -137.00      0.4451      0.4451
   -136.00      0.4457      0.4457
   -135.00      0.4464      0.4464
   -134.00      0.4470      0.4470
   -133.00      0.4475      0.4475
   -132.00      0.4482      0.4482
   -131.00      0.4491      0.4491
   -130.00      0.4503      0.4503
   -129.00      0.4515      0.4515
   -128.00      0.4528      0.4528
   -127.00      0.4542      0.4542
   -126.00      0.4557      0.4557
   -125.00      0.4572      0.4572
   -124.00      0.4588      0.4588
   -123.00      0.4603      0.4603
   -122.00      0.4619      0.4619
   -121.00      0.4633      0.4633
   -120.00      0.4648      0.4648
   -119.00      0.4661      0.4661
   -118.00      0.4674      0.4674
   -117.00      0.4686      0.4686
   -116.00      0.4699      0.4699
   -115.00      0.4710      0.4710
   -114.00      0.4722      0.4722
   -113.00      0.4736      0.4736
   -112.00      0.4750      0.4750
   -111.00      0.4758      0.4758
   -110.00      0.4762      0.4762
   -109.00      0.4765      0.4765
   -108.00      0.4767      0.4767
   -107.00      0.4768      0.4768
   -106.00      0.4769      0.4769
   -105.00      0.4769      0.4769
   -104.00      0.4768      0.4768
   -103.00      0.4767      0.4767
   -102.00      0.4765      0.4765
   -101.00      0.4761      0.4761
   -100.00      0.4754      0.4754
    -99.00      0.4745      0.4745
    -98.00      0.4733      0.4733
    -97.00      0.4718      0.4718
    -96.00      0.4702      0.4702
    -95.00      0.4687      0.4687
    -94.00      0.4670      0.4670
    -93.00      0.4653      0.4653
    -92.00      0.4638      0.4638
    -91.00      0.4624      0.4624
    -90.00      0.4604      0.4604
    -89.00      0.4574      0.4574
    -88.00      0.4533      0.4533
    -87.00      0.4492      0.4492
    -86.00      0.4455      0.4455
    -85.00      0.4418      0.4418
    -84.00      0.4381      0.4381
    -83.00      0.4343      0.4343
    -82.00      0.4304      0.4304
    -81.00      0.4264      0.4264
    -80.00      0.4221      0.4221
    -79.00      0.4176      0.4176
    -78.00      0.4131      0.4131
    -77.00      0.4083      0.4083
    -76.00      0.4034      0.4034
    -75.00      0.3985      0.3985