IEA-15-240-RWT_AeroDyn15_Polar_29; 2 361 2 361 2 361
                0.0000      1.0000
   -180.00      0.0000      0.0000
   -179.00      0.0262      0.0262
   -178.00      0.0525      0.0525
   -177.00      0.0787      0.0787
   -176.00      0.1050      0.1050
   -175.00      0.1312      0.1312
   -174.00      0.1575      0.1575
   -173.00      0.1837      0.1837
   -172.00      0.2100      0.2100
   -171.00      0.2362      0.2362
   -170.00      0.2625      0.2625
   -169.00      0.2887      0.2887
   -168.00      0.3150      0.3150
   -167.00      0.3412      0.3412
   -166.00      0.3675      0.3675
   -165.00      0.3937      0.3937
   -164.00      0.4200      0.4200
   -163.00      0.4462      0.4462
   -162.00      0.4725      0.4725
   -161.00      0.4987      0.4987
   -160.00      0.5250      0.5250
   -159.00      0.5512      0.5512
   -158.00      0.5775      0.5775
   -157.00      0.6037      0.6037
   -156.00      0.6300      0.6300
   -155.00      0.6562      0.6562
   -154.00      0.6825      0.6825
   -153.00      0.7087      0.7087
   -152.00      0.7367      0.7367
   -151.00      0.7647      0.7647
   -150.00      0.7875      0.7875
   -149.00      0.8065      0.8065
   -148.00      0.8228      0.8228
   -147.00      0.8296      0.8296
   -146.00      0.8238      0.8238
   -145.00      0.8111      0.8111
   -144.00      0.7985      0.7985
   -143.00      0.7887      0.7887
   -142.00      0.7790      0.7790
   -141.00      0.7692      0.7692
   -140.00      0.7594      0.7594
   -139.00      0.7495      0.7495
   -138.00      0.7396      0.7396
   -137.00      0.7295      0.7295
   -136.00      0.7194      0.7194
   -135.00      0.7091      0.7091
   -134.00      0.6985      0.6985
   -133.00      0.6876      0.6876
   -132.00      0.6764      0.6764
   -131.00      0.6649      0.6649
   -130.00      0.6531      0.6531
   -129.00      0.6412      0.6412
   -128.00      0.6292      0.6292
   -127.00      0.6172      0.6172
   -126.00      0.6049      0.6049
   -125.00      0.5923      0.5923
   -124.00      0.5794      0.5794
   -123.00      0.5661      0.5661
   -122.00      0.5523      0.5523
   -121.00      0.5381      0.5381
   -120.00      0.5236      0.5236
   -119.00      0.5088      0.5088
   -118.00      0.4938      0.4938
   -117.00      0.4785      0.4785
   -116.00      0.4630      0.4630
   -115.00      0.4472      0.4472
   -114.00      0.4312      0.4312
   -113.00      0.4149      0.4149
   -112.00      0.3983      0.3983
   -111.00      0.3815      0.3815
   -110.00      0.3643      0.3643
   -109.00      0.3469      0.3469
   -108.00      0.3293      0.3293
   -107.00      0.3116      0.3116
   -106.00      0.2938      0.2938
   -105.00      0.2758      0.2758
   -104.00      0.2577      0.2577
   -103.00      0.2395      0.2395
   -102.00      0.2212      0.2212
   -101.00      0.2027      0.2027
   -100.00      0.1842      0.1842
    -99.00      0.1656      0.1656
    -98.00      0.1471      0.1471
    -97.00      0.1285      0.1285
    -96.00      0.1100      0.1100
    -95.00      0.0915      0.0915
    -94.00      0.0731      0.0731
    -93.00      0.0547      0.0547
    -92.00      0.0364      0.0364
    -91.00      0.0182      0.0182
    -90.00     -0.0000     -0.0000
    -89.00     -0.0182     -0.0182
    -88.00     -0.0364     -0.0364
    -87.00     -0.0547     -0.0547
    -86.00     -0.0731     -0.0731
    -85.00     -0.0915     -0.0915
    -84.00     -0.1100     -0.1100
    -83.00     -0.1285     -0.1285
    -82.00     -0.1471     -0.1471
    -81.00     -0.1656     -0.1656
    -80.00     -0.1842     -0.1842
    -79.00     -0.2027     -0.2027
    -78.00     -0.2212     -0.2212
    -77.00     -0.2395     -0.2395
    -76.00     -0.2577     -0.2577
    -75.00     -0.2758     -0.2758
    -74.00     -0.2938     -0.2938
    -73.00     -0.3116     -0.3116
    -72.00     -0.3293     -0.3293
    -71.00     -0.3469     -0.3469
    -70.00     -0.3643     -0.3643
    -69.00     -0.3815     -0.3815
    -68.00     -0.3983     -0.3983
    -67.00     -0.4149     -0.4149
    -66.00     -0.4312     -0.4312
    -65.00     -0.4472     -0.4472
    -64.00     -0.4630     -0.4630
    -63.00     -0.4785     -0.4785
    -62.00     -0.4938     -0.4938
    -61.00     -0.5088     -0.5088
    -60.00     -0.5236     -0.5236
    -59.00     -0.5381     -0.5381
    -58.00     -0.5523     -0.5523
    -57.00     -0.5661     -0.5661
    -56.00     -0.5794     -0.5794
    -55.00     -0.5923     -0.5923
    -54.00     -0.6049     -0.6049
    -53.00     -0.6172     -0.6172
    -52.00     -0.6292     -0.6292
    -51.00     -0.6412     -0.6412
    -50.00     -0.6531     -0.6531
    -49.00     -0.6649     -0.6649
    -48.00     -0.6764     -0.6764
    -47.00     -0.6899     -0.6899
    -46.00     -0.7031     -0.7031
    -45.00     -0.7091     -0.7091
    -44.00     -0.7086     -0.7086
    -43.00     -0.7077     -0.7077
    -42.00     -0.7072     -0.7072
    -41.00     -0.7077     -0.7077
    -40.00     -0.7090     -0.7090
    -39.00     -0.7107     -0.7107
    -38.00     -0.7130     -0.7130
    -37.00     -0.7162     -0.7162
    -36.00     -0.7200     -0.7200
    -35.00     -0.7241     -0.7241
    -34.00     -0.7293     -0.7293
    -33.00     -0.7375     -0.7375
    -32.00     -0.7646     -0.7646
    -31.00     -0.8147     -0.8147
    -30.00     -0.8712     -0.8712
    -29.00     -0.9345     -0.9345
    -28.00     -0.9919     -0.9919
    -27.00     -1.0007     -1.0007
    -26.00     -1.0070     -1.0070
    -25.00     -1.0145     -1.0145
    -24.00     -1.0202     -1.0202
    -23.00     -1.0267     -1.0267
    -22.00     -1.0333     -1.0333
    -21.00     -1.0399     -1.0399
    -20.00     -1.0454     -1.0454
    -19.00     -1.0443     -1.0443
    -18.00     -1.0416     -1.0416
    -17.00     -1.0340     -1.0340
    -16.00     -1.0267     -1.0267
    -15.00     -1.0397     -1.0397
    -14.00     -1.0466     -1.0466
    -13.00     -1.0475     -1.0475
    -12.00     -1.0437     -1.0437
    -11.00     -0.9920     -0.9920
    -10.00     -0.9335     -0.9335
     -9.00     -0.8094     -0.8094
     -8.00     -0.6869     -0.6869
     -7.00     -0.5537     -0.5537
     -6.00     -0.4191     -0.4191
     -5.00     -0.2853     -0.2853
     -4.00     -0.1516     -0.1516
     -3.00     -0.0201     -0.0201
     -2.00      0.1111      0.1111
     -1.00      0.2414      0.2414
      0.00      0.3709      0.3709
      1.00      0.4984      0.4984
      2.00      0.6254      0.6254
      3.00      0.7512      0.7512
      4.00      0.8759      0.8759
      5.00      0.9987      0.9987
      6.00      1.1194      1.1194
      7.00      1.2379      1.2379
      8.00      1.3533      1.3533
      9.00      1.4639      1.4639
     10.00      1.5702      1.5702
     11.00      1.6680      1.6680
     12.00      1.7567      1.7567
     13.00      1.8324      1.8324
     14.00      1.8857      1.8857
     15.00      1.8961      1.8961
     16.00      1.8794      1.8794
     17.00      1.8013      1.8013
     18.00      1.7193      1.7193
     19.00      1.6240      1.6240
     20.00      1.5322      1.5322
     21.00      1.4718      1.4718
     22.00      1.4159      1.4159
     23.00      1.3601      1.3601
     24.00      1.3050      1.3050
     25.00      1.2717      1.2717
     26.00      1.2443      1.2443
     27.00      1.2155      1.2155
     28.00      1.1895      1.1895
     29.00      1.1654      1.1654
     30.00      1.1407      1.1407
     31.00      1.1182      1.1182
     32.00      1.0975      1.0975
     33.00      1.0815      1.0815
     34.00      1.0702      1.0702
     35.00      1.0612      1.0612
     36.00      1.0533      1.0533
     37.00      1.0462      1.0462
     38.00      1.0398      1.0398
     39.00      1.0342      1.0342
     40.00      1.0292      1.0292
     41.00      1.0247      1.0247
     42.00      1.0209      1.0209
     43.00      1.0184      1.0184
     44.00      1.0163      1.0163
     45.00      1.0130      1.0130
     46.00      1.0025      1.0025
     47.00      0.9846      0.9846
     48.00      0.9663      0.9663
     49.00      0.9499      0.9499
     50.00      0.9330      0.9330
     51.00      0.9159      0.9159
     52.00      0.8989      0.8989
     53.00      0.8817      0.8817
     54.00      0.8641      0.8641
     55.00      0.8461      0.8461
     56.00      0.8277      0.8277
     57.00      0.8087      0.8087
     58.00      0.7890      0.7890
     59.00      0.7687      0.7687
     60.00      0.7479      0.7479
     61.00      0.7269      0.7269
     62.00      0.7054      0.7054
     63.00      0.6836      0.6836
     64.00      0.6614      0.6614
     65.00      0.6389      0.6389
     66.00      0.6160      0.6160
     67.00      0.5927      0.5927
     68.00      0.5690      0.5690
     69.00      0.5450      0.5450
     70.00      0.5205      0.5205
     71.00      0.4955      0.4955
     72.00      0.4704      0.4704
     73.00      0.4451      0.4451
     74.00      0.4196      0.4196
     75.00      0.3940      0.3940
     76.00      0.3681      0.3681
     77.00      0.3421      0.3421
     78.00      0.3160      0.3160
     79.00      0.2896      0.2896
     80.00      0.2631      0.2631
     81.00      0.2366      0.2366
     82.00      0.2101      0.2101
     83.00      0.1836      0.1836
     84.00      0.1571      0.1571
     85.00      0.1307      0.1307
     86.00      0.1044      0.1044
     87.00      0.0781      0.0781
     88.00      0.0510      0.0510
     89.00      0.0240      0.0240
     90.00      0.0000      0.0000
     91.00     -0.0196     -0.0196
     92.00     -0.0371     -0.0371
     93.00     -0.0547     -0.0547
     94.00     -0.0731     -0.0731
     95.00     -0.0915     -0.0915
     96.00     -0.1100     -0.1100
     97.00     -0.1285     -0.1285
     98.00     -0.1471     -0.1471
     99.00     -0.1656     -0.1656
    100.00     -0.1842     -0.1842
    101.00     -0.2027     -0.2027
    102.00     -0.2212     -0.2212
    103.00     -0.2395     -0.2395
    104.00     -0.2577     -0.2577
    105.00     -0.2758     -0.2758
    106.00     -0.2938     -0.2938
    107.00     -0.3116     -0.3116
    108.00     -0.3293     -0.3293
    109.00     -0.3469     -0.3469
    110.00     -0.3643     -0.3643
    111.00     -0.3815     -0.3815
    112.00     -0.3983     -0.3983
    113.00     -0.4149     -0.4149
    114.00     -0.4312     -0.4312
    115.00     -0.4472     -0.4472
    116.00     -0.4630     -0.4630
    117.00     -0.4785     -0.4785
    118.00     -0.4938     -0.4938
    119.00     -0.5088     -0.5088
    120.00     -0.5236     -0.5236
    121.00     -0.5381     -0.5381
    122.00     -0.5523     -0.5523
    123.00     -0.5661     -0.5661
    124.00     -0.5794     -0.5794
    125.00     -0.5923     -0.5923
    126.00     -0.6049     -0.6049
    127.00     -0.6172     -0.6172
    128.00     -0.6292     -0.6292
    129.00     -0.6412     -0.6412
    130.00     -0.6531     -0.6531
    131.00     -0.6649     -0.6649
    132.00     -0.6764     -0.6764
    133.00     -0.6876     -0.6876
    134.00     -0.6985     -0.6985
    135.00     -0.7091     -0.7091
    136.00     -0.7194     -0.7194
    137.00     -0.7295     -0.7295
    138.00     -0.7396     -0.7396
    139.00     -0.7495     -0.7495
    140.00     -0.7594     -0.7594
    141.00     -0.7692     -0.7692
    142.00     -0.7790     -0.7790
    143.00     -0.7887     -0.7887
    144.00     -0.7985     -0.7985
    145.00     -0.8111     -0.8111
    146.00     -0.8238     -0.8238
    147.00     -0.8296     -0.8296
    148.00     -0.8228     -0.8228
    149.00     -0.8065     -0.8065
    150.00     -0.7875     -0.7875
    151.00     -0.7647     -0.7647
    152.00     -0.7367     -0.7367
    153.00     -0.7087     -0.7087
    154.00     -0.6825     -0.6825
    155.00     -0.6562     -0.6562
    156.00     -0.6300     -0.6300
    157.00     -0.6037     -0.6037
    158.00     -0.5775     -0.5775
    159.00     -0.5512     -0.5512
    160.00     -0.5250     -0.5250
    161.00     -0.4987     -0.4987
    162.00     -0.4725     -0.4725
    163.00     -0.4462     -0.4462
    164.00     -0.4200     -0.4200
    165.00     -0.3937     -0.3937
    166.00     -0.3675     -0.3675
    167.00     -0.3412     -0.3412
    168.00     -0.3150     -0.3150
    169.00     -0.2887     -0.2887
    170.00     -0.2625     -0.2625
    171.00     -0.2362     -0.2362
    172.00     -0.2100     -0.2100
    173.00     -0.1837     -0.1837
    174.00     -0.1575     -0.1575
    175.00     -0.1312     -0.1312
    176.00     -0.1050     -0.1050
    177.00     -0.0787     -0.0787
    178.00     -0.0525     -0.0525
    179.00     -0.0262     -0.0262
    180.00     -0.0000     -0.0000
                0.0000      1.0000
   -180.00      0.0127      0.0127
   -179.00      0.0130      0.0130
   -178.00      0.0135      0.0135
   -177.00      0.0141      0.0141
   -176.00      0.0150      0.0150
   -175.00      0.0162      0.0162
   -174.00      0.0176      0.0176
   -173.00      0.0192      0.0192
   -172.00      0.0211      0.0211
   -171.00      0.0234      0.0234
   -170.00      0.0266      0.0266
   -169.00      0.0308      0.0308
   -168.00      0.0364      0.0364
   -167.00      0.0454      0.0454
   -166.00      0.0580      0.0580
   -165.00      0.0713      0.0713
   -164.00      0.0844      0.0844
   -163.00      0.0984      0.0984
   -162.00      0.1130      0.1130
   -161.00      0.1283      0.1283
   -160.00      0.1444      0.1444
   -159.00      0.1612      0.1612
   -158.00      0.1786      0.1786
   -157.00      0.1968      0.1968
   -156.00      0.2156      0.2156
   -155.00      0.2349      0.2349
   -154.00      0.2548      0.2548
   -153.00      0.2753      0.2753
   -152.00      0.2963      0.2963
   -151.00      0.3178      0.3178
   -150.00      0.3399      0.3399
   -149.00      0.3626      0.3626
   -148.00      0.3858      0.3858
   -147.00      0.4093      0.4093
   -146.00      0.4329      0.4329
   -145.00      0.4569      0.4569
   -144.00      0.4812      0.4812
   -143.00      0.5060      0.5060
   -142.00      0.5312      0.5312
   -141.00      0.5565      0.5565
   -140.00      0.5819      0.5819
   -139.00      0.6075      0.6075
   -138.00      0.6331      0.6331
   -137.00      0.6589      0.6589
   -136.00      0.6848      0.6848
   -135.00      0.7107      0.7107
   -134.00      0.7367      0.7367
   -133.00      0.7627      0.7627
   -132.00      0.7886      0.7886
   -131.00      0.8143      0.8143
   -130.00      0.8400      0.8400
   -129.00      0.8654      0.8654
   -128.00      0.8908      0.8908
   -127.00      0.9159      0.9159
   -126.00      0.9409      0.9409
   -125.00      0.9657      0.9657
   -124.00      0.9903      0.9903
   -123.00      1.0145      1.0145
   -122.00      1.0380      1.0380
   -121.00      1.0612      1.0612
   -120.00      1.0839      1.0839
   -119.00      1.1062      1.1062
   -118.00      1.1280      1.1280
   -117.00      1.1495      1.1495
   -116.00      1.1705      1.1705
   -115.00      1.1911      1.1911
   -114.00      1.2111      1.2111
   -113.00      1.2306      1.2306
   -112.00      1.2496      1.2496
   -111.00      1.2676      1.2676
   -110.00      1.2847      1.2847
   -109.00      1.3011      1.3011
   -108.00      1.3167      1.3167
   -107.00      1.3318      1.3318
   -106.00      1.3463      1.3463
   -105.00      1.3602      1.3602
   -104.00      1.3735      1.3735
   -103.00      1.3862      1.3862
   -102.00      1.3978      1.3978
   -101.00      1.4084      1.4084
   -100.00      1.4181      1.4181
    -99.00      1.4268      1.4268
    -98.00      1.4346      1.4346
    -97.00      1.4416      1.4416
    -96.00      1.4477      1.4477
    -95.00      1.4532      1.4532
    -94.00      1.4581      1.4581
    -93.00      1.4620      1.4620
    -92.00      1.4653      1.4653
    -91.00      1.4682      1.4682
    -90.00      1.4694      1.4694
    -89.00      1.4682      1.4682
    -88.00      1.4653      1.4653
    -87.00      1.4620      1.4620
    -86.00      1.4581      1.4581
    -85.00      1.4532      1.4532
    -84.00      1.4477      1.4477
    -83.00      1.4416      1.4416
    -82.00      1.4346      1.4346
    -81.00      1.4268      1.4268
    -80.00      1.4181      1.4181
    -79.00      1.4084      1.4084
    -78.00      1.3978      1.3978
    -77.00      1.3862      1.3862
    -76.00      1.3735      1.3735
    -75.00      1.3602      1.3602
    -74.00      1.3463      1.3463
    -73.00      1.3318      1.3318
    -72.00      1.3167      1.3167
    -71.00      1.3011      1.3011
    -70.00      1.2847      1.2847
    -69.00      1.2676      1.2676
    -68.00      1.2496      1.2496
    -67.00      1.2306      1.2306
    -66.00      1.2111      1.2111
    -65.00      1.1911      1.1911
    -64.00      1.1705      1.1705
    -63.00      1.1495      1.1495
    -62.00      1.1280      1.1280
    -61.00      1.1062      1.1062
    -60.00      1.0839      1.0839
    -59.00      1.0612      1.0612
    -58.00      1.0380      1.0380
    -57.00      1.0145      1.0145
    -56.00      0.9903      0.9903
    -55.00      0.9657      0.9657
    -54.00      0.9409      0.9409
    -53.00      0.9159      0.9159
    -52.00      0.8908      0.8908
    -51.00      0.8654      0.8654
    -50.00      0.8400      0.8400
    -49.00      0.8143      0.8143
    -48.00      0.7886      0.7886
    -47.00      0.7627      0.7627
    -46.00      0.7367      0.7367
    -45.00      0.7107      0.7107
    -44.00      0.6848      0.6848
    -43.00      0.6589      0.6589
    -42.00      0.6331      0.6331
    -41.00      0.6075      0.6075
    -40.00      0.5819      0.5819
    -39.00      0.5565      0.5565
    -38.00      0.5312      0.5312
    -37.00      0.5060      0.5060
    -36.00      0.4812      0.4812
    -35.00      0.4580      0.4580
    -34.00      0.4352      0.4352
    -33.00      0.4093      0.4093
    -32.00      0.3774      0.3774
    -31.00      0.3408      0.3408
    -30.00      0.3022      0.3022
    -29.00      0.2611      0.2611
    -28.00      0.2227      0.2227
    -27.00      0.2044      0.2044
    -26.00      0.1880      0.1880
    -25.00      0.1715      0.1715
    -24.00      0.1563      0.1563
    -23.00      0.1429      0.1429
    -22.00      0.1296      0.1296
    -21.00      0.1162      0.1162
    -20.00      0.1033      0.1033
    -19.00      0.0928      0.0928
    -18.00      0.0829      0.0829
    -17.00      0.0741      0.0741
    -16.00      0.0654      0.0654
    -15.00      0.0564      0.0564
    -14.00      0.0473      0.0473
    -13.00      0.0395      0.0395
    -12.00      0.0323      0.0323
    -11.00      0.0261      0.0261
    -10.00      0.0201      0.0201
     -9.00      0.0165      0.0165
     -8.00      0.0129      0.0129
     -7.00      0.0113      0.0113
     -6.00      0.0101      0.0101
     -5.00      0.0096      0.0096
     -4.00      0.0092      0.0092
     -3.00      0.0090      0.0090
     -2.00      0.0088      0.0088
     -1.00      0.0088      0.0088
      0.00      0.0088      0.0088
      1.00      0.0089      0.0089
      2.00      0.0091      0.0091
      3.00      0.0093      0.0093
      4.00      0.0096      0.0096
      5.00      0.0101      0.0101
      6.00      0.0106      0.0106
      7.00      0.0112      0.0112
      8.00      0.0120      0.0120
      9.00      0.0130      0.0130
     10.00      0.0142      0.0142
     11.00      0.0157      0.0157
     12.00      0.0174      0.0174
     13.00      0.0198      0.0198
     14.00      0.0235      0.0235
     15.00      0.0299      0.0299
     16.00      0.0390      0.0390
     17.00      0.0544      0.0544
     18.00      0.0703      0.0703
     19.00      0.0903      0.0903
     20.00      0.1107      0.1107
     21.00      0.1319      0.1319
     22.00      0.1532      0.1532
     23.00      0.1752      0.1752
     24.00      0.1969      0.1969
     25.00      0.2187      0.2187
     26.00      0.2401      0.2401
     27.00      0.2620      0.2620
     28.00      0.2846      0.2846
     29.00      0.3102      0.3102
     30.00      0.3351      0.3351
     31.00      0.3599      0.3599
     32.00      0.3847      0.3847
     33.00      0.4093      0.4093
     34.00      0.4333      0.4333
     35.00      0.4571      0.4571
     36.00      0.4812      0.4812
     37.00      0.5060      0.5060
     38.00      0.5312      0.5312
     39.00      0.5565      0.5565
     40.00      0.5819      0.5819
     41.00      0.6075      0.6075
     42.00      0.6331      0.6331
     43.00      0.6589      0.6589
     44.00      0.6848      0.6848
     45.00      0.7107      0.7107
     46.00      0.7367      0.7367
     47.00      0.7627      0.7627
     48.00      0.7886      0.7886
     49.00      0.8143      0.8143
     50.00      0.8400      0.8400
     51.00      0.8654      0.8654
     52.00      0.8908      0.8908
     53.00      0.9159      0.9159
     54.00      0.9409      0.9409
     55.00      0.9657      0.9657
     56.00      0.9903      0.9903
     57.00      1.0145      1.0145
     58.00      1.0380      1.0380
     59.00      1.0612      1.0612
     60.00      1.0839      1.0839
     61.00      1.1062      1.1062
     62.00      1.1280      1.1280
     63.00      1.1495      1.1495
     64.00      1.1705      1.1705
     65.00      1.1911      1.1911
     66.00      1.2111      1.2111
     67.00      1.2306      1.2306
     68.00      1.2496      1.2496
     69.00      1.2676      1.2676
     70.00      1.2847      1.2847
     71.00      1.3011      1.3011
     72.00      1.3167      1.3167
     73.00      1.3318      1.3318
     74.00      1.3463      1.3463
     75.00      1.3602      1.3602
     76.00      1.3735      1.3735
     77.00      1.3862      1.3862
     78.00      1.3978      1.3978
     79.00      1.4084      1.4084
     80.00      1.4181      1.4181
     81.00      1.4268      1.4268
     82.00      1.4346      1.4346
     83.00      1.4416      1.4416
     84.00      1.4477      1.4477
     85.00      1.4532      1.4532
     86.00      1.4581      1.4581
     87.00      1.4620      1.4620
     88.00      1.4653      1.4653
     89.00      1.4682      1.4682
     90.00      1.4694      1.4694
     91.00      1.4682      1.4682
     92.00      1.4653      1.4653
     93.00      1.4620      1.4620
     94.00      1.4581      1.4581
     95.00      1.4532      1.4532
     96.00      1.4477      1.4477
     97.00      1.4416      1.4416
     98.00      1.4346      1.4346
     99.00      1.4268      1.4268
    100.00      1.4181      1.4181
    101.00      1.4084      1.4084
    102.00      1.3978      1.3978
    103.00      1.3862      1.3862
    104.00      1.3735      1.3735
    105.00      1.3602      1.3602
    106.00      1.3463      1.3463
    107.00      1.3318      1.3318
    108.00      1.3167      1.3167
    109.00      1.3011      1.3011
    110.00      1.2847      1.2847
    111.00      1.2676      1.2676
    112.00      1.2496      1.2496
    113.00      1.2306      1.2306
    114.00      1.2111      1.2111
    115.00      1.1911      1.1911
    116.00      1.1705      1.1705
    117.00      1.1495      1.1495
    118.00      1.1280      1.1280
    119.00      1.1062      1.1062
    120.00      1.0839      1.0839
    121.00      1.0612      1.0612
    122.00      1.0380      1.0380
    123.00      1.0145      1.0145
    124.00      0.9903      0.9903
    125.00      0.9657      0.9657
    126.00      0.9409      0.9409
    127.00      0.9159      0.9159
    128.00      0.8908      0.8908
    129.00      0.8654      0.8654
    130.00      0.8400      0.8400
    131.00      0.8143      0.8143
    132.00      0.7886      0.7886
    133.00      0.7627      0.7627
    134.00      0.7367      0.7367
    135.00      0.7107      0.7107
    136.00      0.6848      0.6848
    137.00      0.6589      0.6589
    138.00      0.6331      0.6331
    139.00      0.6075      0.6075
    140.00      0.5819      0.5819
    141.00      0.5565      0.5565
    142.00      0.5312      0.5312
    143.00      0.5060      0.5060
    144.00      0.4812      0.4812
    145.00      0.4569      0.4569
    146.00      0.4329      0.4329
    147.00      0.4093      0.4093
    148.00      0.3858      0.3858
    149.00      0.3626      0.3626
    150.00      0.3399      0.3399
    151.00      0.3178      0.3178
    152.00      0.2963      0.2963
    153.00      0.2753      0.2753
    154.00      0.2548      0.2548
    155.00      0.2349      0.2349
    156.00      0.2156      0.2156
    157.00      0.1968      0.1968
    158.00      0.1786      0.1786
    159.00      0.1612      0.1612
    160.00      0.1444      0.1444
    161.00      0.1283      0.1283
    162.00      0.1130      0.1130
    163.00      0.0984      0.0984
    164.00      0.0844      0.0844
    165.00      0.0713      0.0713
    166.00      0.0580      0.0580
    167.00      0.0454      0.0454
    168.00      0.0364      0.0364
    169.00      0.0308      0.0308
    170.00      0.0266      0.0266
    171.00      0.0234      0.0234
    172.00      0.0211      0.0211
    173.00      0.0192      0.0192
    174.00      0.0176      0.0176
    175.00      0.0162      0.0162
    176.00      0.0150      0.0150
    177.00      0.0141      0.0141
    178.00      0.0135      0.0135
    179.00      0.0130      0.0130
    180.00      0.0127      0.0127
                0.0000      1.0000
   -180.00      0.0000      0.0000
   -179.00      0.0400      0.0400
   -178.00      0.0800      0.0800
   -177.00      0.1200      0.1200
   -176.00      0.1600      0.1600
   -175.00      0.2000      0.2000
   -174.00      0.2400      0.2400
   -173.00      0.2848      0.2848
   -172.00      0.3296      0.3296
   -171.00      0.3600      0.3600
   -170.00      0.3775      0.3775
   -169.00      0.3908      0.3908
   -168.00      0.3960      0.3960
   -167.00      0.3949      0.3949
   -166.00      0.3924      0.3924
   -165.00      0.3900      0.3900
   -164.00      0.3875      0.3875
   -163.00      0.3851      0.3851
   -162.00      0.3839      0.3839
   -161.00      0.3844      0.3844
   -160.00      0.3857      0.3857
   -159.00      0.3875      0.3875
   -158.00      0.3926      0.3926
   -157.00      0.4014      0.4014
   -156.00      0.4102      0.4102
   -155.00      0.4179      0.4179
   -154.00      0.4255      0.4255
   -153.00      0.4329      0.4329
   -152.00      0.4415      0.4415
   -151.00      0.4498      0.4498
   -150.00      0.4535      0.4535
   -149.00      0.4534      0.4534
   -148.00      0.4530      0.4530
   -147.00      0.4526      0.4526
   -146.00      0.4518      0.4518
   -145.00      0.4506      0.4506
   -144.00      0.4494      0.4494
   -143.00      0.4483      0.4483
   -142.00      0.4472      0.4472
   -141.00      0.4463      0.4463
   -140.00      0.4455      0.4455
   -139.00      0.4448      0.4448
   -138.00      0.4445      0.4445
   -137.00      0.4446      0.4446
   -136.00      0.4449      0.4449
   -135.00      0.4452      0.4452
   -134.00      0.4454      0.4454
   -133.00      0.4456      0.4456
   -132.00      0.4458      0.4458
   -131.00      0.4464      0.4464
   -130.00      0.4473      0.4473
   -129.00      0.4483      0.4483
   -128.00      0.4493      0.4493
   -127.00      0.4504      0.4504
   -126.00      0.4516      0.4516
   -125.00      0.4529      0.4529
   -124.00      0.4542      0.4542
   -123.00      0.4556      0.4556
   -122.00      0.4569      0.4569
   -121.00      0.4581      0.4581
   -120.00      0.4594      0.4594
   -119.00      0.4605      0.4605
   -118.00      0.4617      0.4617
   -117.00      0.4628      0.4628
   -116.00      0.4639      0.4639
   -115.00      0.4649      0.4649
   -114.00      0.4660      0.4660
   -113.00      0.4672      0.4672
   -112.00      0.4684      0.4684
   -111.00      0.4692      0.4692
   -110.00      0.4695      0.4695
   -109.00      0.4697      0.4697
   -108.00      0.4698      0.4698
   -107.00      0.4699      0.4699
   -106.00      0.4699      0.4699
   -105.00      0.4699      0.4699
   -104.00      0.4698      0.4698
   -103.00      0.4696      0.4696
   -102.00      0.4694      0.4694
   -101.00      0.4689      0.4689
   -100.00      0.4681      0.4681
    -99.00      0.4672      0.4672
    -98.00      0.4660      0.4660
    -97.00      0.4645      0.4645
    -96.00      0.4630      0.4630
    -95.00      0.4614      0.4614
    -94.00      0.4597      0.4597
    -93.00      0.4581      0.4581
    -92.00      0.4566      0.4566
    -91.00      0.4551      0.4551
    -90.00      0.4532      0.4532
    -89.00      0.4501      0.4501
    -88.00      0.4462      0.4462
    -87.00      0.4422      0.4422
    -86.00      0.4385      0.4385
    -85.00      0.4349      0.4349
    -84.00      0.4312      0.4312
    -83.00      0.4275      0.4275
    -82.00      0.4237      0.4237
    -81.00      0.4197      0.4197
    -80.00      0.4155      0.4155
    -79.00      0.4112      0.4112
    -78.00      0.4067      0.4067
    -77.00      0.4020      0.4020
    -76.00      0.3972      0.3972
    -75.00      0.3924      0.3924