IEA-15-240-RWT_AeroDyn15_Polar_22; 2 361 2 361 2 361
                0.0000      1.0000
   -180.00      0.0000      0.0000
   -179.00      0.0283      0.0283
   -178.00      0.0567      0.0567
   -177.00      0.0850      0.0850
   -176.00      0.1133      0.1133
   -175.00      0.1417      0.1417
   -174.00      0.1700      0.1700
   -173.00      0.1983      0.1983
   -172.00      0.2266      0.2266
   -171.00      0.2550      0.2550
   -170.00      0.2833      0.2833
   -169.00      0.3116      0.3116
   -168.00      0.3400      0.3400
   -167.00      0.3683      0.3683
   -166.00      0.3966      0.3966
   -165.00      0.4250      0.4250
   -164.00      0.4533      0.4533
   -163.00      0.4816      0.4816
   -162.00      0.5100      0.5100
   -161.00      0.5383      0.5383
   -160.00      0.5666      0.5666
   -159.00      0.5950      0.5950
   -158.00      0.6233      0.6233
   -157.00      0.6516      0.6516
   -156.00      0.6800      0.6800
   -155.00      0.7083      0.7083
   -154.00      0.7366      0.7366
   -153.00      0.7649      0.7649
   -152.00      0.7955      0.7955
   -151.00      0.8261      0.8261
   -150.00      0.8499      0.8499
   -149.00      0.8685      0.8685
   -148.00      0.8840      0.8840
   -147.00      0.8904      0.8904
   -146.00      0.8812      0.8812
   -145.00      0.8612      0.8612
   -144.00      0.8418      0.8418
   -143.00      0.8269      0.8269
   -142.00      0.8126      0.8126
   -141.00      0.7985      0.7985
   -140.00      0.7844      0.7844
   -139.00      0.7705      0.7705
   -138.00      0.7568      0.7568
   -137.00      0.7432      0.7432
   -136.00      0.7297      0.7297
   -135.00      0.7162      0.7162
   -134.00      0.7026      0.7026
   -133.00      0.6891      0.6891
   -132.00      0.6755      0.6755
   -131.00      0.6616      0.6616
   -130.00      0.6476      0.6476
   -129.00      0.6335      0.6335
   -128.00      0.6194      0.6194
   -127.00      0.6051      0.6051
   -126.00      0.5907      0.5907
   -125.00      0.5762      0.5762
   -124.00      0.5615      0.5615
   -123.00      0.5467      0.5467
   -122.00      0.5316      0.5316
   -121.00      0.5163      0.5163
   -120.00      0.5009      0.5009
   -119.00      0.4853      0.4853
   -118.00      0.4695      0.4695
   -117.00      0.4536      0.4536
   -116.00      0.4376      0.4376
   -115.00      0.4215      0.4215
   -114.00      0.4052      0.4052
   -113.00      0.3888      0.3888
   -112.00      0.3722      0.3722
   -111.00      0.3556      0.3556
   -110.00      0.3387      0.3387
   -109.00      0.3217      0.3217
   -108.00      0.3047      0.3047
   -107.00      0.2876      0.2876
   -106.00      0.2705      0.2705
   -105.00      0.2533      0.2533
   -104.00      0.2361      0.2361
   -103.00      0.2189      0.2189
   -102.00      0.2016      0.2016
   -101.00      0.1844      0.1844
   -100.00      0.1671      0.1671
    -99.00      0.1500      0.1500
    -98.00      0.1329      0.1329
    -97.00      0.1159      0.1159
    -96.00      0.0990      0.0990
    -95.00      0.0822      0.0822
    -94.00      0.0655      0.0655
    -93.00      0.0489      0.0489
    -92.00      0.0325      0.0325
    -91.00      0.0163      0.0163
    -90.00     -0.0000     -0.0000
    -89.00     -0.0163     -0.0163
    -88.00     -0.0325     -0.0325
    -87.00     -0.0489     -0.0489
    -86.00     -0.0655     -0.0655
    -85.00     -0.0822     -0.0822
    -84.00     -0.0990     -0.0990
    -83.00     -0.1159     -0.1159
    -82.00     -0.1329     -0.1329
    -81.00     -0.1500     -0.1500
    -80.00     -0.1671     -0.1671
    -79.00     -0.1844     -0.1844
    -78.00     -0.2016     -0.2016
    -77.00     -0.2189     -0.2189
    -76.00     -0.2361     -0.2361
    -75.00     -0.2533     -0.2533
    -74.00     -0.2705     -0.2705
    -73.00     -0.2876     -0.2876
    -72.00     -0.3047     -0.3047
    -71.00     -0.3217     -0.3217
    -70.00     -0.3387     -0.3387
    -69.00     -0.3556     -0.3556
    -68.00     -0.3722     -0.3722
    -67.00     -0.3888     -0.3888
    -66.00     -0.4052     -0.4052
    -65.00     -0.4215     -0.4215
    -64.00     -0.4376     -0.4376
    -63.00     -0.4536     -0.4536
    -62.00     -0.4695     -0.4695
    -61.00     -0.4853     -0.4853
    -60.00     -0.5009     -0.5009
    -59.00     -0.5163     -0.5163
    -58.00     -0.5316     -0.5316
    -57.00     -0.5467     -0.5467
    -56.00     -0.5615     -0.5615
    -55.00     -0.5762     -0.5762
    -54.00     -0.5907     -0.5907
    -53.00     -0.6051     -0.6051
    -52.00     -0.6194     -0.6194
    -51.00     -0.6335     -0.6335
    -50.00     -0.6476     -0.6476
    -49.00     -0.6616     -0.6616
    -48.00     -0.6755     -0.6755
    -47.00     -0.6892     -0.6892
    -46.00     -0.7028     -0.7028
    -45.00     -0.7162     -0.7162
    -44.00     -0.7292     -0.7292
    -43.00     -0.7421     -0.7421
    -42.00     -0.7551     -0.7551
    -41.00     -0.7684     -0.7684
    -40.00     -0.7819     -0.7819
    -39.00     -0.7955     -0.7955
    -38.00     -0.8093     -0.8093
    -37.00     -0.8233     -0.8233
    -36.00     -0.8378     -0.8378
    -35.00     -0.8519     -0.8519
    -34.00     -0.8667     -0.8667
    -33.00     -0.8858     -0.8858
    -32.00     -0.9155     -0.9155
    -31.00     -0.9554     -0.9554
    -30.00     -0.9995     -0.9995
    -29.00     -1.0486     -1.0486
    -28.00     -1.0929     -1.0929
    -27.00     -1.0982     -1.0982
    -26.00     -1.0986     -1.0986
    -25.00     -1.0992     -1.0992
    -24.00     -1.1002     -1.1002
    -23.00     -1.1032     -1.1032
    -22.00     -1.1071     -1.1071
    -21.00     -1.1111     -1.1111
    -20.00     -1.1140     -1.1140
    -19.00     -1.1166     -1.1166
    -18.00     -1.1190     -1.1190
    -17.00     -1.1171     -1.1171
    -16.00     -1.1150     -1.1150
    -15.00     -1.1146     -1.1146
    -14.00     -1.1138     -1.1138
    -13.00     -1.1051     -1.1051
    -12.00     -1.0874     -1.0874
    -11.00     -1.0071     -1.0071
    -10.00     -0.9186     -0.9186
     -9.00     -0.8061     -0.8061
     -8.00     -0.6928     -0.6928
     -7.00     -0.5734     -0.5734
     -6.00     -0.4517     -0.4517
     -5.00     -0.3156     -0.3156
     -4.00     -0.1775     -0.1775
     -3.00     -0.0364     -0.0364
     -2.00      0.1047      0.1047
     -1.00      0.2431      0.2431
      0.00      0.3795      0.3795
      1.00      0.5145      0.5145
      2.00      0.6477      0.6477
      3.00      0.7794      0.7794
      4.00      0.9097      0.9097
      5.00      1.0380      1.0380
      6.00      1.1641      1.1641
      7.00      1.2882      1.2882
      8.00      1.4086      1.4086
      9.00      1.5251      1.5251
     10.00      1.6368      1.6368
     11.00      1.7393      1.7393
     12.00      1.8322      1.8322
     13.00      1.9123      1.9123
     14.00      1.9676      1.9676
     15.00      1.9926      1.9926
     16.00      1.9877      1.9877
     17.00      1.9465      1.9465
     18.00      1.9014      1.9014
     19.00      1.8122      1.8122
     20.00      1.7232      1.7232
     21.00      1.6545      1.6545
     22.00      1.5889      1.5889
     23.00      1.5234      1.5234
     24.00      1.4595      1.4595
     25.00      1.4304      1.4304
     26.00      1.4034      1.4034
     27.00      1.3770      1.3770
     28.00      1.3519      1.3519
     29.00      1.3355      1.3355
     30.00      1.3201      1.3201
     31.00      1.3035      1.3035
     32.00      1.2859      1.2859
     33.00      1.2668      1.2668
     34.00      1.2449      1.2449
     35.00      1.2211      1.2211
     36.00      1.1982      1.1982
     37.00      1.1773      1.1773
     38.00      1.1572      1.1572
     39.00      1.1374      1.1374
     40.00      1.1178      1.1178
     41.00      1.0985      1.0985
     42.00      1.0793      1.0793
     43.00      1.0605      1.0605
     44.00      1.0419      1.0419
     45.00      1.0231      1.0231
     46.00      1.0039      1.0039
     47.00      0.9845      0.9845
     48.00      0.9649      0.9649
     49.00      0.9452      0.9452
     50.00      0.9252      0.9252
     51.00      0.9050      0.9050
     52.00      0.8848      0.8848
     53.00      0.8644      0.8644
     54.00      0.8438      0.8438
     55.00      0.8231      0.8231
     56.00      0.8022      0.8022
     57.00      0.7810      0.7810
     58.00      0.7595      0.7595
     59.00      0.7376      0.7376
     60.00      0.7155      0.7155
     61.00      0.6932      0.6932
     62.00      0.6707      0.6707
     63.00      0.6480      0.6480
     64.00      0.6252      0.6252
     65.00      0.6021      0.6021
     66.00      0.5789      0.5789
     67.00      0.5554      0.5554
     68.00      0.5318      0.5318
     69.00      0.5079      0.5079
     70.00      0.4839      0.4839
     71.00      0.4596      0.4596
     72.00      0.4353      0.4353
     73.00      0.4109      0.4109
     74.00      0.3864      0.3864
     75.00      0.3619      0.3619
     76.00      0.3373      0.3373
     77.00      0.3127      0.3127
     78.00      0.2880      0.2880
     79.00      0.2634      0.2634
     80.00      0.2388      0.2388
     81.00      0.2143      0.2143
     82.00      0.1899      0.1899
     83.00      0.1656      0.1656
     84.00      0.1414      0.1414
     85.00      0.1174      0.1174
     86.00      0.0936      0.0936
     87.00      0.0699      0.0699
     88.00      0.0456      0.0456
     89.00      0.0214      0.0214
     90.00      0.0000      0.0000
     91.00     -0.0176     -0.0176
     92.00     -0.0332     -0.0332
     93.00     -0.0489     -0.0489
     94.00     -0.0655     -0.0655
     95.00     -0.0822     -0.0822
     96.00     -0.0990     -0.0990
     97.00     -0.1159     -0.1159
     98.00     -0.1329     -0.1329
     99.00     -0.1500     -0.1500
    100.00     -0.1671     -0.1671
    101.00     -0.1844     -0.1844
    102.00     -0.2016     -0.2016
    103.00     -0.2189     -0.2189
    104.00     -0.2361     -0.2361
    105.00     -0.2533     -0.2533
    106.00     -0.2705     -0.2705
    107.00     -0.2876     -0.2876
    108.00     -0.3047     -0.3047
    109.00     -0.3217     -0.3217
    110.00     -0.3387     -0.3387
    111.00     -0.3556     -0.3556
    112.00     -0.3722     -0.3722
    113.00     -0.3888     -0.3888
    114.00     -0.4052     -0.4052
    115.00     -0.4215     -0.4215
    116.00     -0.4376     -0.4376
    117.00     -0.4536     -0.4536
    118.00     -0.4695     -0.4695
    119.00     -0.4853     -0.4853
    120.00     -0.5009     -0.5009
    121.00     -0.5163     -0.5163
    122.00     -0.5316     -0.5316
    123.00     -0.5467     -0.5467
    124.00     -0.5615     -0.5615
    125.00     -0.5762     -0.5762
    126.00     -0.5907     -0.5907
    127.00     -0.6051     -0.6051
    128.00     -0.6194     -0.6194
    129.00     -0.6335     -0.6335
    130.00     -0.6476     -0.6476
    131.00     -0.6616     -0.6616
    132.00     -0.6755     -0.6755
    133.00     -0.6891     -0.6891
    134.00     -0.7026     -0.7026
    135.00     -0.7162     -0.7162
    136.00     -0.7297     -0.7297
    137.00     -0.7432     -0.7432
    138.00     -0.7568     -0.7568
    139.00     -0.7705     -0.7705
    140.00     -0.7844     -0.7844
    141.00     -0.7985     -0.7985
    142.00     -0.8126     -0.8126
    143.00     -0.8269     -0.8269
    144.00     -0.8418     -0.8418
    145.00     -0.8612     -0.8612
    146.00     -0.8812     -0.8812
    147.00     -0.8904     -0.8904
    148.00     -0.8840     -0.8840
    149.00     -0.8685     -0.8685
    150.00     -0.8499     -0.8499
    151.00     -0.8261     -0.8261
    152.00     -0.7955     -0.7955
    153.00     -0.7649     -0.7649
    154.00     -0.7366     -0.7366
    155.00     -0.7083     -0.7083
    156.00     -0.6799     -0.6799
    157.00     -0.6516     -0.6516
    158.00     -0.6233     -0.6233
    159.00     -0.5950     -0.5950
    160.00     -0.5666     -0.5666
    161.00     -0.5383     -0.5383
    162.00     -0.5100     -0.5100
    163.00     -0.4816     -0.4816
    164.00     -0.4533     -0.4533
    165.00     -0.4250     -0.4250
    166.00     -0.3966     -0.3966
    167.00     -0.3683     -0.3683
    168.00     -0.3400     -0.3400
    169.00     -0.3116     -0.3116
    170.00     -0.2833     -0.2833
    171.00     -0.2550     -0.2550
    172.00     -0.2266     -0.2266
    173.00     -0.1983     -0.1983
    174.00     -0.1700     -0.1700
    175.00     -0.1417     -0.1417
    176.00     -0.1133     -0.1133
    177.00     -0.0850     -0.0850
    178.00     -0.0567     -0.0567
    179.00     -0.0283     -0.0283
    180.00      0.0000      0.0000
                0.0000      1.0000
   -180.00      0.0237      0.0237
   -179.00      0.0239      0.0239
   -178.00      0.0244      0.0244
   -177.00      0.0249      0.0249
   -176.00      0.0257      0.0257
   -175.00      0.0268      0.0268
   -174.00      0.0280      0.0280
   -173.00      0.0294      0.0294
   -172.00      0.0310      0.0310
   -171.00      0.0331      0.0331
   -170.00      0.0357      0.0357
   -169.00      0.0392      0.0392
   -168.00      0.0438      0.0438
   -167.00      0.0514      0.0514
   -166.00      0.0622      0.0622
   -165.00      0.0736      0.0736
   -164.00      0.0852      0.0852
   -163.00      0.0977      0.0977
   -162.00      0.1108      0.1108
   -161.00      0.1246      0.1246
   -160.00      0.1390      0.1390
   -159.00      0.1541      0.1541
   -158.00      0.1697      0.1697
   -157.00      0.1859      0.1859
   -156.00      0.2027      0.2027
   -155.00      0.2199      0.2199
   -154.00      0.2376      0.2376
   -153.00      0.2558      0.2558
   -152.00      0.2744      0.2744
   -151.00      0.2936      0.2936
   -150.00      0.3132      0.3132
   -149.00      0.3333      0.3333
   -148.00      0.3539      0.3539
   -147.00      0.3747      0.3747
   -146.00      0.3956      0.3956
   -145.00      0.4168      0.4168
   -144.00      0.4383      0.4383
   -143.00      0.4602      0.4602
   -142.00      0.4824      0.4824
   -141.00      0.5048      0.5048
   -140.00      0.5272      0.5272
   -139.00      0.5497      0.5497
   -138.00      0.5724      0.5724
   -137.00      0.5951      0.5951
   -136.00      0.6179      0.6179
   -135.00      0.6407      0.6407
   -134.00      0.6636      0.6636
   -133.00      0.6865      0.6865
   -132.00      0.7093      0.7093
   -131.00      0.7319      0.7319
   -130.00      0.7545      0.7545
   -129.00      0.7768      0.7768
   -128.00      0.7991      0.7991
   -127.00      0.8212      0.8212
   -126.00      0.8431      0.8431
   -125.00      0.8649      0.8649
   -124.00      0.8865      0.8865
   -123.00      0.9077      0.9077
   -122.00      0.9284      0.9284
   -121.00      0.9486      0.9486
   -120.00      0.9685      0.9685
   -119.00      0.9880      0.9880
   -118.00      1.0072      1.0072
   -117.00      1.0259      1.0259
   -116.00      1.0443      1.0443
   -115.00      1.0623      1.0623
   -114.00      1.0797      1.0797
   -113.00      1.0968      1.0968
   -112.00      1.1133      1.1133
   -111.00      1.1290      1.1290
   -110.00      1.1439      1.1439
   -109.00      1.1581      1.1581
   -108.00      1.1717      1.1717
   -107.00      1.1848      1.1848
   -106.00      1.1974      1.1974
   -105.00      1.2094      1.2094
   -104.00      1.2208      1.2208
   -103.00      1.2318      1.2318
   -102.00      1.2418      1.2418
   -101.00      1.2509      1.2509
   -100.00      1.2592      1.2592
    -99.00      1.2666      1.2666
    -98.00      1.2732      1.2732
    -97.00      1.2791      1.2791
    -96.00      1.2843      1.2843
    -95.00      1.2888      1.2888
    -94.00      1.2928      1.2928
    -93.00      1.2960      1.2960
    -92.00      1.2986      1.2986
    -91.00      1.3007      1.3007
    -90.00      1.3016      1.3016
    -89.00      1.3007      1.3007
    -88.00      1.2986      1.2986
    -87.00      1.2960      1.2960
    -86.00      1.2928      1.2928
    -85.00      1.2888      1.2888
    -84.00      1.2843      1.2843
    -83.00      1.2791      1.2791
    -82.00      1.2732      1.2732
    -81.00      1.2666      1.2666
    -80.00      1.2592      1.2592
    -79.00      1.2509      1.2509
    -78.00      1.2418      1.2418
    -77.00      1.2318      1.2318
    -76.00      1.2208      1.2208
    -75.00      1.2094      1.2094
    -74.00      1.1974      1.1974
    -73.00      1.1848      1.1848
    -72.00      1.1717      1.1717
    -71.00      1.1581      1.1581
    -70.00      1.1439      1.1439
    -69.00      1.1290      1.1290
    -68.00      1.1133      1.1133
    -67.00      1.0968      1.0968
    -66.00      1.0797      1.0797
    -65.00      1.0623      1.0623
    -64.00      1.0443      1.0443
    -63.00      1.0259      1.0259
    -62.00      1.0072      1.0072
    -61.00      0.9880      0.9880
    -60.00      0.9685      0.9685
    -59.00      0.9486      0.9486
    -58.00      0.9284      0.9284
    -57.00      0.9077      0.9077
    -56.00      0.8865      0.8865
    -55.00      0.8649      0.8649
    -54.00      0.8431      0.8431
    -53.00      0.8212      0.8212
    -52.00      0.7991      0.7991
    -51.00      0.7768      0.7768
    -50.00      0.7545      0.7545
    -49.00      0.7319      0.7319
    -48.00      0.7093      0.7093
    -47.00      0.6865      0.6865
    -46.00      0.6636      0.6636
    -45.00      0.6407      0.6407
    -44.00      0.6179      0.6179
    -43.00      0.5951      0.5951
    -42.00      0.5724      0.5724
    -41.00      0.5497      0.5497
    -40.00      0.5272      0.5272
    -39.00      0.5048      0.5048
    -38.00      0.4824      0.4824
    -37.00      0.4602      0.4602
    -36.00      0.4383      0.4383
    -35.00      0.4176      0.4176
    -34.00      0.3973      0.3973
    -33.00      0.3747      0.3747
    -32.00      0.3478      0.3478
    -31.00      0.3177      0.3177
    -30.00      0.2859      0.2859
    -29.00      0.2518      0.2518
    -28.00      0.2193      0.2193
    -27.00      0.2023      0.2023
    -26.00      0.1871      0.1871
    -25.00      0.1719      0.1719
    -24.00      0.1568      0.1568
    -23.00      0.1434      0.1434
    -22.00      0.1301      0.1301
    -21.00      0.1167      0.1167
    -20.00      0.1037      0.1037
    -19.00      0.0927      0.0927
    -18.00      0.0820      0.0820
    -17.00      0.0727      0.0727
    -16.00      0.0635      0.0635
    -15.00      0.0553      0.0553
    -14.00      0.0473      0.0473
    -13.00      0.0398      0.0398
    -12.00      0.0327      0.0327
    -11.00      0.0278      0.0278
    -10.00      0.0231      0.0231
     -9.00      0.0203      0.0203
     -8.00      0.0177      0.0177
     -7.00      0.0158      0.0158
     -6.00      0.0141      0.0141
     -5.00      0.0131      0.0131
     -4.00      0.0122      0.0122
     -3.00      0.0118      0.0118
     -2.00      0.0114      0.0114
     -1.00      0.0113      0.0113
      0.00      0.0112      0.0112
      1.00      0.0113      0.0113
      2.00      0.0114      0.0114
      3.00      0.0116      0.0116
      4.00      0.0119      0.0119
      5.00      0.0122      0.0122
      6.00      0.0127      0.0127
      7.00      0.0132      0.0132
      8.00      0.0139      0.0139
      9.00      0.0147      0.0147
     10.00      0.0158      0.0158
     11.00      0.0171      0.0171
     12.00      0.0190      0.0190
     13.00      0.0215      0.0215
     14.00      0.0258      0.0258
     15.00      0.0324      0.0324
     16.00      0.0417      0.0417
     17.00      0.0546      0.0546
     18.00      0.0679      0.0679
     19.00      0.0866      0.0866
     20.00      0.1059      0.1059
     21.00      0.1273      0.1273
     22.00      0.1491      0.1491
     23.00      0.1708      0.1708
     24.00      0.1927      0.1927
     25.00      0.2133      0.2133
     26.00      0.2338      0.2338
     27.00      0.2543      0.2543
     28.00      0.2748      0.2748
     29.00      0.2945      0.2945
     30.00      0.3142      0.3142
     31.00      0.3341      0.3341
     32.00      0.3542      0.3542
     33.00      0.3747      0.3747
     34.00      0.3955      0.3955
     35.00      0.4167      0.4167
     36.00      0.4383      0.4383
     37.00      0.4602      0.4602
     38.00      0.4824      0.4824
     39.00      0.5048      0.5048
     40.00      0.5272      0.5272
     41.00      0.5497      0.5497
     42.00      0.5724      0.5724
     43.00      0.5951      0.5951
     44.00      0.6179      0.6179
     45.00      0.6407      0.6407
     46.00      0.6636      0.6636
     47.00      0.6865      0.6865
     48.00      0.7093      0.7093
     49.00      0.7319      0.7319
     50.00      0.7545      0.7545
     51.00      0.7768      0.7768
     52.00      0.7991      0.7991
     53.00      0.8212      0.8212
     54.00      0.8431      0.8431
     55.00      0.8649      0.8649
     56.00      0.8865      0.8865
     57.00      0.9077      0.9077
     58.00      0.9284      0.9284
     59.00      0.9486      0.9486
     60.00      0.9685      0.9685
     61.00      0.9880      0.9880
     62.00      1.0072      1.0072
     63.00      1.0259      1.0259
     64.00      1.0443      1.0443
     65.00      1.0623      1.0623
     66.00      1.0797      1.0797
     67.00      1.0968      1.0968
     68.00      1.1133      1.1133
     69.00      1.1290      1.1290
     70.00      1.1439      1.1439
     71.00      1.1581      1.1581
     72.00      1.1717      1.1717
     73.00      1.1848      1.1848
     74.00      1.1974      1.1974
     75.00      1.2094      1.2094
     76.00      1.2208      1.2208
     77.00      1.2318      1.2318
     78.00      1.2418      1.2418
     79.00      1.2509      1.2509
     80.00      1.2592      1.2592
     81.00      1.2666      1.2666
     82.00      1.2732      1.2732
     83.00      1.2791      1.2791
     84.00      1.2843      1.2843
     85.00      1.2888      1.2888
     86.00      1.2928      1.2928
     87.00      1.2960      1.2960
     88.00      1.2986      1.2986
     89.00      1.3007      1.3007
     90.00      1.3016      1.3016
     91.00      1.3007      1.3007
     92.00      1.2986      1.2986
     93.00      1.2960      1.2960
     94.00      1.2928      1.2928
     95.00      1.2888      1.2888
     96.00      1.2843      1.2843
     97.00      1.2791      1.2791
     98.00      1.2732      1.2732
     99.00      1.2666      1.2666
    100.00      1.2592      1.2592
    101.00      1.2509      1.2509
    102.00      1.2418      1.2418
    103.00      1.2318      1.2318
    104.00      1.2208      1.2208
    105.00      1.2094      1.2094
    106.00      1.1974      1.1974
    107.00      1.1848      1.1848
    108.00      1.1717      1.1717
    109.00      1.1581      1.1581
    110.00      1.1439      1.1439
    111.00      1.1290      1.1290
    112.00      1.1133      1.1133
    113.00      1.0968      1.0968
    114.00      1.0797      1.0797
    115.00      1.0623      1.0623
    116.00      1.0443      1.0443
    117.00      1.0259      1.0259
    118.00      1.0072      1.0072
    119.00      0.9880      0.9880
    120.00      0.9685      0.9685
    121.00      0.9486      0.9486
    122.00      0.9284      0.9284
    123.00      0.9077      0.9077
    124.00      0.8865      0.8865
    125.00      0.8649      0.8649
    126.00      0.8431      0.8431
    127.00      0.8212      0.8212
    128.00      0.7991      0.7991
    129.00      0.7768      0.7768
    130.00      0.7545      0.7545
    131.00      0.7319      0.7319
    132.00      0.7093      0.7093
    133.00      0.6865      0.6865
    134.00      0.6636      0.6636
    135.00      0.6407      0.6407
    136.00      0.6179      0.6179
    137.00      0.5951      0.5951
    138.00      0.5724      0.5724
    139.00      0.5497      0.5497
    140.00      0.5272      0.5272
    141.00      0.5048      0.5048
    142.00      0.4824      0.4824
    143.00      0.4602      0.4602
    144.00      0.4383      0.4383
    145.00      0.4168      0.4168
    146.00      0.3956      0.3956
    147.00      0.3747      0.3747
    148.00      0.3539      0.3539
    149.00      0.3333      0.3333
    150.00      0.3132      0.3132
    151.00      0.2936      0.2936
    152.00      0.2744      0.2744
    153.00      0.2558      0.2558
    154.00      0.2376      0.2376
    155.00      0.2199      0.2199
    156.00      0.2027      0.2027
    157.00      0.1859      0.1859
    158.00      0.1697      0.1697
    159.00      0.1541      0.1541
    160.00      0.1390      0.1390
    161.00      0.1246      0.1246
    162.00      0.1108      0.1108
    163.00      0.0977      0.0977
    164.00      0.0852      0.0852
    165.00      0.0736      0.0736
    166.00      0.0622      0.0622
    167.00      0.0514      0.0514
    168.00      0.0438      0.0438
    169.00      0.0392      0.0392
    170.00      0.0357      0.0357
    171.00      0.0331      0.0331
    172.00      0.0310      0.0310
    173.00      0.0294      0.0294
    174.00      0.0280      0.0280
    175.00      0.0268      0.0268
    176.00      0.0257      0.0257
    177.00      0.0249      0.0249
    178.00      0.0244      0.0244
    179.00      0.0239      0.0239
    180.00      0.0237      0.0237
                0.0000      1.0000
   -180.00      0.0000      0.0000
   -179.00      0.0400      0.0400
   -178.00      0.0800      0.0800
   -177.00      0.1200      0.1200
   -176.00      0.1600      0.1600
   -175.00      0.2000      0.2000
   -174.00      0.2400      0.2400
   -173.00      0.2844      0.2844
   -172.00      0.3287      0.3287
   -171.00      0.3600      0.3600
   -170.00      0.3794      0.3794
   -169.00      0.3944      0.3944
   -168.00      0.4009      0.4009
   -167.00      0.4015      0.4015
   -166.00      0.4019      0.4019
   -165.00      0.4023      0.4023
   -164.00      0.4026      0.4026
   -163.00      0.4030      0.4030
   -162.00      0.4036      0.4036
   -161.00      0.4052      0.4052
   -160.00      0.4081      0.4081
   -159.00      0.4118      0.4118
   -158.00      0.4176      0.4176
   -157.00      0.4257      0.4257
   -156.00      0.4337      0.4337
   -155.00      0.4411      0.4411
   -154.00      0.4485      0.4485
   -153.00      0.4556      0.4556
   -152.00      0.4636      0.4636
   -151.00      0.4714      0.4714
   -150.00      0.4748      0.4748
   -149.00      0.4735      0.4735
   -148.00      0.4704      0.4704
   -147.00      0.4670      0.4670
   -146.00      0.4638      0.4638
   -145.00      0.4602      0.4602
   -144.00      0.4566      0.4566
   -143.00      0.4531      0.4531
   -142.00      0.4497      0.4497
   -141.00      0.4466      0.4466
   -140.00      0.4438      0.4438
   -139.00      0.4413      0.4413
   -138.00      0.4390      0.4390
   -137.00      0.4371      0.4371
   -136.00      0.4354      0.4354
   -135.00      0.4336      0.4336
   -134.00      0.4317      0.4317
   -133.00      0.4297      0.4297
   -132.00      0.4283      0.4283
   -131.00      0.4273      0.4273
   -130.00      0.4265      0.4265
   -129.00      0.4260      0.4260
   -128.00      0.4256      0.4256
   -127.00      0.4254      0.4254
   -126.00      0.4253      0.4253
   -125.00      0.4254      0.4254
   -124.00      0.4256      0.4256
   -123.00      0.4258      0.4258
   -122.00      0.4260      0.4260
   -121.00      0.4263      0.4263
   -120.00      0.4266      0.4266
   -119.00      0.4269      0.4269
   -118.00      0.4273      0.4273
   -117.00      0.4278      0.4278
   -116.00      0.4282      0.4282
   -115.00      0.4286      0.4286
   -114.00      0.4291      0.4291
   -113.00      0.4296      0.4296
   -112.00      0.4302      0.4302
   -111.00      0.4304      0.4304
   -110.00      0.4304      0.4304
   -109.00      0.4302      0.4302
   -108.00      0.4301      0.4301
   -107.00      0.4299      0.4299
   -106.00      0.4296      0.4296
   -105.00      0.4293      0.4293
   -104.00      0.4290      0.4290
   -103.00      0.4286      0.4286
   -102.00      0.4282      0.4282
   -101.00      0.4275      0.4275
   -100.00      0.4267      0.4267
    -99.00      0.4257      0.4257
    -98.00      0.4244      0.4244
    -97.00      0.4230      0.4230
    -96.00      0.4215      0.4215
    -95.00      0.4199      0.4199
    -94.00      0.4183      0.4183
    -93.00      0.4167      0.4167
    -92.00      0.4153      0.4153
    -91.00      0.4138      0.4138
    -90.00      0.4120      0.4120
    -89.00      0.4092      0.4092
    -88.00      0.4057      0.4057
    -87.00      0.4022      0.4022
    -86.00      0.3990      0.3990
    -85.00      0.3957      0.3957
    -84.00      0.3925      0.3925
    -83.00      0.3892      0.3892
    -82.00      0.3858      0.3858
    -81.00      0.3823      0.3823
    -80.00      0.3786      0.3786
    -79.00      0.3748      0.3748
    -78.00      0.3709      0.3709
    -77.00      0.3668      0.3668
    -76.00      0.3627      0.3627
    -75.00      0.3585      0.3585