IEA-15-240-RWT_AeroDyn15_Polar_16; 2 361 2 361 2 361
                0.0000      1.0000
   -180.00      0.0000      0.0000
   -179.00      0.0305      0.0305
   -178.00      0.0610      0.0610
   -177.00      0.0914      0.0914
   -176.00      0.1219      0.1219
   -175.00      0.1524      0.1524
   -174.00      0.1829      0.1829
   -173.00      0.2134      0.2134
   -172.00      0.2438      0.2438
   -171.00      0.2743      0.2743
   -170.00      0.3048      0.3048
   -169.00      0.3353      0.3353
   -168.00      0.3658      0.3658
   -167.00      0.3963      0.3963
   -166.00      0.4267      0.4267
   -165.00      0.4572      0.4572
   -164.00      0.4877      0.4877
   -163.00      0.5182      0.5182
   -162.00      0.5487      0.5487
   -161.00      0.5791      0.5791
   -160.00      0.6096      0.6096
   -159.00      0.6401      0.6401
   -158.00      0.6706      0.6706
   -157.00      0.7011      0.7011
   -156.00      0.7315      0.7315
   -155.00      0.7620      0.7620
   -154.00      0.7925      0.7925
   -153.00      0.8230      0.8230
   -152.00      0.8560      0.8560
   -151.00      0.8890      0.8890
   -150.00      0.9144      0.9144
   -149.00      0.9337      0.9337
   -148.00      0.9494      0.9494
   -147.00      0.9560      0.9560
   -146.00      0.9449      0.9449
   -145.00      0.9209      0.9209
   -144.00      0.8977      0.8977
   -143.00      0.8800      0.8800
   -142.00      0.8630      0.8630
   -141.00      0.8463      0.8463
   -140.00      0.8298      0.8298
   -139.00      0.8135      0.8135
   -138.00      0.7974      0.7974
   -137.00      0.7815      0.7815
   -136.00      0.7658      0.7658
   -135.00      0.7502      0.7502
   -134.00      0.7347      0.7347
   -133.00      0.7194      0.7194
   -132.00      0.7040      0.7040
   -131.00      0.6886      0.6886
   -130.00      0.6731      0.6731
   -129.00      0.6576      0.6576
   -128.00      0.6421      0.6421
   -127.00      0.6265      0.6265
   -126.00      0.6108      0.6108
   -125.00      0.5950      0.5950
   -124.00      0.5792      0.5792
   -123.00      0.5633      0.5633
   -122.00      0.5471      0.5471
   -121.00      0.5308      0.5308
   -120.00      0.5143      0.5143
   -119.00      0.4978      0.4978
   -118.00      0.4811      0.4811
   -117.00      0.4644      0.4644
   -116.00      0.4476      0.4476
   -115.00      0.4306      0.4306
   -114.00      0.4136      0.4136
   -113.00      0.3964      0.3964
   -112.00      0.3792      0.3792
   -111.00      0.3618      0.3618
   -110.00      0.3444      0.3444
   -109.00      0.3268      0.3268
   -108.00      0.3093      0.3093
   -107.00      0.2917      0.2917
   -106.00      0.2741      0.2741
   -105.00      0.2564      0.2564
   -104.00      0.2388      0.2388
   -103.00      0.2212      0.2212
   -102.00      0.2036      0.2036
   -101.00      0.1860      0.1860
   -100.00      0.1685      0.1685
    -99.00      0.1510      0.1510
    -98.00      0.1337      0.1337
    -97.00      0.1165      0.1165
    -96.00      0.0995      0.0995
    -95.00      0.0825      0.0825
    -94.00      0.0657      0.0657
    -93.00      0.0491      0.0491
    -92.00      0.0326      0.0326
    -91.00      0.0163      0.0163
    -90.00     -0.0000     -0.0000
    -89.00     -0.0163     -0.0163
    -88.00     -0.0326     -0.0326
    -87.00     -0.0491     -0.0491
    -86.00     -0.0657     -0.0657
    -85.00     -0.0825     -0.0825
    -84.00     -0.0995     -0.0995
    -83.00     -0.1165     -0.1165
    -82.00     -0.1337     -0.1337
    -81.00     -0.1510     -0.1510
    -80.00     -0.1685     -0.1685
    -79.00     -0.1860     -0.1860
    -78.00     -0.2036     -0.2036
    -77.00     -0.2212     -0.2212
    -76.00     -0.2388     -0.2388
    -75.00     -0.2564     -0.2564
    -74.00     -0.2741     -0.2741
    -73.00     -0.2917     -0.2917
    -72.00     -0.3093     -0.3093
    -71.00     -0.3268     -0.3268
    -70.00     -0.3444     -0.3444
    -69.00     -0.3618     -0.3618
    -68.00     -0.3792     -0.3792
    -67.00     -0.3964     -0.3964
    -66.00     -0.4136     -0.4136
    -65.00     -0.4306     -0.4306
    -64.00     -0.4476     -0.4476
    -63.00     -0.4644     -0.4644
    -62.00     -0.4811     -0.4811
    -61.00     -0.4978     -0.4978
    -60.00     -0.5143     -0.5143
    -59.00     -0.5308     -0.5308
    -58.00     -0.5471     -0.5471
    -57.00     -0.5633     -0.5633
    -56.00     -0.5792     -0.5792
    -55.00     -0.5950     -0.5950
    -54.00     -0.6108     -0.6108
    -53.00     -0.6265     -0.6265
    -52.00     -0.6421     -0.6421
    -51.00     -0.6576     -0.6576
    -50.00     -0.6731     -0.6731
    -49.00     -0.6886     -0.6886
    -48.00     -0.7040     -0.7040
    -47.00     -0.7184     -0.7184
    -46.00     -0.7328     -0.7328
    -45.00     -0.7502     -0.7502
    -44.00     -0.7747     -0.7747
    -43.00     -0.8047     -0.8047
    -42.00     -0.8349     -0.8349
    -41.00     -0.8635     -0.8635
    -40.00     -0.8923     -0.8923
    -39.00     -0.9213     -0.9213
    -38.00     -0.9512     -0.9512
    -37.00     -0.9813     -0.9813
    -36.00     -1.0102     -1.0102
    -35.00     -1.0360     -1.0360
    -34.00     -1.0608     -1.0608
    -33.00     -1.0892     -1.0892
    -32.00     -1.1245     -1.1245
    -31.00     -1.1652     -1.1652
    -30.00     -1.2086     -1.2086
    -29.00     -1.2551     -1.2551
    -28.00     -1.2953     -1.2953
    -27.00     -1.2966     -1.2966
    -26.00     -1.2920     -1.2920
    -25.00     -1.2859     -1.2859
    -24.00     -1.2733     -1.2733
    -23.00     -1.2515     -1.2515
    -22.00     -1.2293     -1.2293
    -21.00     -1.2068     -1.2068
    -20.00     -1.1836     -1.1836
    -19.00     -1.1571     -1.1571
    -18.00     -1.1302     -1.1302
    -17.00     -1.1040     -1.1040
    -16.00     -1.0780     -1.0780
    -15.00     -1.0566     -1.0566
    -14.00     -1.0360     -1.0360
    -13.00     -1.0199     -1.0199
    -12.00     -1.0010     -1.0010
    -11.00     -0.9542     -0.9542
    -10.00     -0.9041     -0.9041
     -9.00     -0.7917     -0.7917
     -8.00     -0.6783     -0.6783
     -7.00     -0.5562     -0.5562
     -6.00     -0.4315     -0.4315
     -5.00     -0.2957     -0.2957
     -4.00     -0.1580     -0.1580
     -3.00     -0.0115     -0.0115
     -2.00      0.1352      0.1352
     -1.00      0.2809      0.2809
      0.00      0.4248      0.4248
      1.00      0.5667      0.5667
      2.00      0.7062      0.7062
      3.00      0.8435      0.8435
      4.00      0.9788      0.9788
      5.00      1.1115      1.1115
      6.00      1.2417      1.2417
      7.00      1.3695      1.3695
      8.00      1.4927      1.4927
      9.00      1.6109      1.6109
     10.00      1.7230      1.7230
     11.00      1.8235      1.8235
     12.00      1.9117      1.9117
     13.00      1.9809      1.9809
     14.00      2.0155      2.0155
     15.00      2.0330      2.0330
     16.00      2.0456      2.0456
     17.00      2.0404      2.0404
     18.00      2.0324      2.0324
     19.00      1.9729      1.9729
     20.00      1.9125      1.9125
     21.00      1.8618      1.8618
     22.00      1.8126      1.8126
     23.00      1.7633      1.7633
     24.00      1.7156      1.7156
     25.00      1.7010      1.7010
     26.00      1.6808      1.6808
     27.00      1.6587      1.6587
     28.00      1.6358      1.6358
     29.00      1.6152      1.6152
     30.00      1.5942      1.5942
     31.00      1.5708      1.5708
     32.00      1.5451      1.5451
     33.00      1.5157      1.5157
     34.00      1.4788      1.4788
     35.00      1.4363      1.4363
     36.00      1.3949      1.3949
     37.00      1.3571      1.3571
     38.00      1.3204      1.3204
     39.00      1.2840      1.2840
     40.00      1.2479      1.2479
     41.00      1.2121      1.2121
     42.00      1.1766      1.1766
     43.00      1.1397      1.1397
     44.00      1.1030      1.1030
     45.00      1.0717      1.0717
     46.00      1.0475      1.0475
     47.00      1.0266      1.0266
     48.00      1.0057      1.0057
     49.00      0.9837      0.9837
     50.00      0.9616      0.9616
     51.00      0.9395      0.9395
     52.00      0.9173      0.9173
     53.00      0.8949      0.8949
     54.00      0.8725      0.8725
     55.00      0.8501      0.8501
     56.00      0.8275      0.8275
     57.00      0.8046      0.8046
     58.00      0.7816      0.7816
     59.00      0.7582      0.7582
     60.00      0.7348      0.7348
     61.00      0.7111      0.7111
     62.00      0.6874      0.6874
     63.00      0.6634      0.6634
     64.00      0.6394      0.6394
     65.00      0.6152      0.6152
     66.00      0.5908      0.5908
     67.00      0.5663      0.5663
     68.00      0.5417      0.5417
     69.00      0.5169      0.5169
     70.00      0.4920      0.4920
     71.00      0.4669      0.4669
     72.00      0.4418      0.4418
     73.00      0.4167      0.4167
     74.00      0.3915      0.3915
     75.00      0.3664      0.3664
     76.00      0.3412      0.3412
     77.00      0.3159      0.3159
     78.00      0.2908      0.2908
     79.00      0.2657      0.2657
     80.00      0.2407      0.2407
     81.00      0.2158      0.2158
     82.00      0.1911      0.1911
     83.00      0.1665      0.1665
     84.00      0.1421      0.1421
     85.00      0.1179      0.1179
     86.00      0.0939      0.0939
     87.00      0.0701      0.0701
     88.00      0.0457      0.0457
     89.00      0.0215      0.0215
     90.00      0.0000      0.0000
     91.00     -0.0176     -0.0176
     92.00     -0.0333     -0.0333
     93.00     -0.0491     -0.0491
     94.00     -0.0657     -0.0657
     95.00     -0.0825     -0.0825
     96.00     -0.0995     -0.0995
     97.00     -0.1165     -0.1165
     98.00     -0.1337     -0.1337
     99.00     -0.1510     -0.1510
    100.00     -0.1685     -0.1685
    101.00     -0.1860     -0.1860
    102.00     -0.2036     -0.2036
    103.00     -0.2212     -0.2212
    104.00     -0.2388     -0.2388
    105.00     -0.2564     -0.2564
    106.00     -0.2741     -0.2741
    107.00     -0.2917     -0.2917
    108.00     -0.3093     -0.3093
    109.00     -0.3268     -0.3268
    110.00     -0.3444     -0.3444
    111.00     -0.3618     -0.3618
    112.00     -0.3792     -0.3792
    113.00     -0.3964     -0.3964
    114.00     -0.4136     -0.4136
    115.00     -0.4306     -0.4306
    116.00     -0.4476     -0.4476
    117.00     -0.4644     -0.4644
    118.00     -0.4811     -0.4811
    119.00     -0.4978     -0.4978
    120.00     -0.5143     -0.5143
    121.00     -0.5308     -0.5308
    122.00     -0.5471     -0.5471
    123.00     -0.5633     -0.5633
    124.00     -0.5792     -0.5792
    125.00     -0.5950     -0.5950
    126.00     -0.6108     -0.6108
    127.00     -0.6265     -0.6265
    128.00     -0.6421     -0.6421
    129.00     -0.6576     -0.6576
    130.00     -0.6731     -0.6731
    131.00     -0.6886     -0.6886
    132.00     -0.7040     -0.7040
    133.00     -0.7194     -0.7194
    134.00     -0.7347     -0.7347
    135.00     -0.7502     -0.7502
    136.00     -0.7658     -0.7658
    137.00     -0.7815     -0.7815
    138.00     -0.7974     -0.7974
    139.00     -0.8135     -0.8135
    140.00     -0.8298     -0.8298
    141.00     -0.8463     -0.8463
    142.00     -0.8630     -0.8630
    143.00     -0.8800     -0.8800
    144.00     -0.8977     -0.8977
    145.00     -0.9209     -0.9209
    146.00     -0.9449     -0.9449
    147.00     -0.9560     -0.9560
    148.00     -0.9494     -0.9494
    149.00     -0.9337     -0.9337
    150.00     -0.9144     -0.9144
    151.00     -0.8890     -0.8890
    152.00     -0.8560     -0.8560
    153.00     -0.8230     -0.8230
    154.00     -0.7925     -0.7925
    155.00     -0.7620     -0.7620
    156.00     -0.7315     -0.7315
    157.00     -0.7011     -0.7011
    158.00     -0.6706     -0.6706
    159.00     -0.6401     -0.6401
    160.00     -0.6096     -0.6096
    161.00     -0.5791     -0.5791
    162.00     -0.5486     -0.5486
    163.00     -0.5182     -0.5182
    164.00     -0.4877     -0.4877
    165.00     -0.4572     -0.4572
    166.00     -0.4267     -0.4267
    167.00     -0.3962     -0.3962
    168.00     -0.3658     -0.3658
    169.00     -0.3353     -0.3353
    170.00     -0.3048     -0.3048
    171.00     -0.2743     -0.2743
    172.00     -0.2438     -0.2438
    173.00     -0.2134     -0.2134
    174.00     -0.1829     -0.1829
    175.00     -0.1524     -0.1524
    176.00     -0.1219     -0.1219
    177.00     -0.0914     -0.0914
    178.00     -0.0610     -0.0610
    179.00     -0.0305     -0.0305
    180.00      0.0000      0.0000
                0.0000      1.0000
   -180.00      0.0318      0.0318
   -179.00      0.0320      0.0320
   -178.00      0.0325      0.0325
   -177.00      0.0330      0.0330
   -176.00      0.0337      0.0337
   -175.00      0.0348      0.0348
   -174.00      0.0361      0.0361
   -173.00      0.0375      0.0375
   -172.00      0.0391      0.0391
   -171.00      0.0410      0.0410
   -170.00      0.0432      0.0432
   -169.00      0.0458      0.0458
   -168.00      0.0492      0.0492
   -167.00      0.0548      0.0548
   -166.00      0.0627      0.0627
   -165.00      0.0719      0.0719
   -164.00      0.0827      0.0827
   -163.00      0.0955      0.0955
   -162.00      0.1089      0.1089
   -161.00      0.1226      0.1226
   -160.00      0.1371      0.1371
   -159.00      0.1521      0.1521
   -158.00      0.1677      0.1677
   -157.00      0.1839      0.1839
   -156.00      0.2006      0.2006
   -155.00      0.2178      0.2178
   -154.00      0.2355      0.2355
   -153.00      0.2537      0.2537
   -152.00      0.2723      0.2723
   -151.00      0.2915      0.2915
   -150.00      0.3111      0.3111
   -149.00      0.3312      0.3312
   -148.00      0.3517      0.3517
   -147.00      0.3725      0.3725
   -146.00      0.3934      0.3934
   -145.00      0.4146      0.4146
   -144.00      0.4361      0.4361
   -143.00      0.4580      0.4580
   -142.00      0.4802      0.4802
   -141.00      0.5026      0.5026
   -140.00      0.5250      0.5250
   -139.00      0.5476      0.5476
   -138.00      0.5702      0.5702
   -137.00      0.5929      0.5929
   -136.00      0.6157      0.6157
   -135.00      0.6385      0.6385
   -134.00      0.6614      0.6614
   -133.00      0.6843      0.6843
   -132.00      0.7070      0.7070
   -131.00      0.7297      0.7297
   -130.00      0.7522      0.7522
   -129.00      0.7746      0.7746
   -128.00      0.7969      0.7969
   -127.00      0.8190      0.8190
   -126.00      0.8409      0.8409
   -125.00      0.8627      0.8627
   -124.00      0.8843      0.8843
   -123.00      0.9055      0.9055
   -122.00      0.9261      0.9261
   -121.00      0.9464      0.9464
   -120.00      0.9663      0.9663
   -119.00      0.9858      0.9858
   -118.00      1.0050      1.0050
   -117.00      1.0237      1.0237
   -116.00      1.0421      1.0421
   -115.00      1.0601      1.0601
   -114.00      1.0776      1.0776
   -113.00      1.0946      1.0946
   -112.00      1.1112      1.1112
   -111.00      1.1269      1.1269
   -110.00      1.1418      1.1418
   -109.00      1.1560      1.1560
   -108.00      1.1696      1.1696
   -107.00      1.1827      1.1827
   -106.00      1.1953      1.1953
   -105.00      1.2073      1.2073
   -104.00      1.2188      1.2188
   -103.00      1.2298      1.2298
   -102.00      1.2399      1.2399
   -101.00      1.2489      1.2489
   -100.00      1.2573      1.2573
    -99.00      1.2647      1.2647
    -98.00      1.2714      1.2714
    -97.00      1.2773      1.2773
    -96.00      1.2825      1.2825
    -95.00      1.2870      1.2870
    -94.00      1.2911      1.2911
    -93.00      1.2942      1.2942
    -92.00      1.2969      1.2969
    -91.00      1.2991      1.2991
    -90.00      1.3000      1.3000
    -89.00      1.2991      1.2991
    -88.00      1.2969      1.2969
    -87.00      1.2942      1.2942
    -86.00      1.2911      1.2911
    -85.00      1.2870      1.2870
    -84.00      1.2825      1.2825
    -83.00      1.2773      1.2773
    -82.00      1.2714      1.2714
    -81.00      1.2647      1.2647
    -80.00      1.2573      1.2573
    -79.00      1.2489      1.2489
    -78.00      1.2399      1.2399
    -77.00      1.2298      1.2298
    -76.00      1.2188      1.2188
    -75.00      1.2073      1.2073
    -74.00      1.1953      1.1953
    -73.00      1.1827      1.1827
    -72.00      1.1696      1.1696
    -71.00      1.1560      1.1560
    -70.00      1.1418      1.1418
    -69.00      1.1269      1.1269
    -68.00      1.1112      1.1112
    -67.00      1.0946      1.0946
    -66.00      1.0776      1.0776
    -65.00      1.0601      1.0601
    -64.00      1.0421      1.0421
    -63.00      1.0237      1.0237
    -62.00      1.0050      1.0050
    -61.00      0.9858      0.9858
    -60.00      0.9663      0.9663
    -59.00      0.9464      0.9464
    -58.00      0.9261      0.9261
    -57.00      0.9055      0.9055
    -56.00      0.8843      0.8843
    -55.00      0.8627      0.8627
    -54.00      0.8409      0.8409
    -53.00      0.8190      0.8190
    -52.00      0.7969      0.7969
    -51.00      0.7746      0.7746
    -50.00      0.7522      0.7522
    -49.00      0.7297      0.7297
    -48.00      0.7070      0.7070
    -47.00      0.6843      0.6843
    -46.00      0.6614      0.6614
    -45.00      0.6385      0.6385
    -44.00      0.6157      0.6157
    -43.00      0.5929      0.5929
    -42.00      0.5702      0.5702
    -41.00      0.5476      0.5476
    -40.00      0.5250      0.5250
    -39.00      0.5026      0.5026
    -38.00      0.4802      0.4802
    -37.00      0.4580      0.4580
    -36.00      0.4361      0.4361
    -35.00      0.4156      0.4156
    -34.00      0.3954      0.3954
    -33.00      0.3725      0.3725
    -32.00      0.3446      0.3446
    -31.00      0.3127      0.3127
    -30.00      0.2789      0.2789
    -29.00      0.2427      0.2427
    -28.00      0.2086      0.2086
    -27.00      0.1924      0.1924
    -26.00      0.1782      0.1782
    -25.00      0.1641      0.1641
    -24.00      0.1501      0.1501
    -23.00      0.1390      0.1390
    -22.00      0.1280      0.1280
    -21.00      0.1170      0.1170
    -20.00      0.1063      0.1063
    -19.00      0.0968      0.0968
    -18.00      0.0875      0.0875
    -17.00      0.0791      0.0791
    -16.00      0.0707      0.0707
    -15.00      0.0628      0.0628
    -14.00      0.0550      0.0550
    -13.00      0.0478      0.0478
    -12.00      0.0408      0.0408
    -11.00      0.0350      0.0350
    -10.00      0.0294      0.0294
     -9.00      0.0258      0.0258
     -8.00      0.0223      0.0223
     -7.00      0.0198      0.0198
     -6.00      0.0175      0.0175
     -5.00      0.0161      0.0161
     -4.00      0.0148      0.0148
     -3.00      0.0142      0.0142
     -2.00      0.0137      0.0137
     -1.00      0.0134      0.0134
      0.00      0.0134      0.0134
      1.00      0.0134      0.0134
      2.00      0.0135      0.0135
      3.00      0.0137      0.0137
      4.00      0.0140      0.0140
      5.00      0.0144      0.0144
      6.00      0.0149      0.0149
      7.00      0.0155      0.0155
      8.00      0.0163      0.0163
      9.00      0.0173      0.0173
     10.00      0.0185      0.0185
     11.00      0.0203      0.0203
     12.00      0.0228      0.0228
     13.00      0.0269      0.0269
     14.00      0.0343      0.0343
     15.00      0.0437      0.0437
     16.00      0.0539      0.0539
     17.00      0.0657      0.0657
     18.00      0.0777      0.0777
     19.00      0.0947      0.0947
     20.00      0.1123      0.1123
     21.00      0.1317      0.1317
     22.00      0.1515      0.1515
     23.00      0.1713      0.1713
     24.00      0.1911      0.1911
     25.00      0.2113      0.2113
     26.00      0.2315      0.2315
     27.00      0.2518      0.2518
     28.00      0.2720      0.2720
     29.00      0.2918      0.2918
     30.00      0.3117      0.3117
     31.00      0.3317      0.3317
     32.00      0.3520      0.3520
     33.00      0.3725      0.3725
     34.00      0.3934      0.3934
     35.00      0.4146      0.4146
     36.00      0.4361      0.4361
     37.00      0.4580      0.4580
     38.00      0.4802      0.4802
     39.00      0.5026      0.5026
     40.00      0.5250      0.5250
     41.00      0.5476      0.5476
     42.00      0.5702      0.5702
     43.00      0.5929      0.5929
     44.00      0.6157      0.6157
     45.00      0.6385      0.6385
     46.00      0.6614      0.6614
     47.00      0.6843      0.6843
     48.00      0.7070      0.7070
     49.00      0.7297      0.7297
     50.00      0.7522      0.7522
     51.00      0.7746      0.7746
     52.00      0.7969      0.7969
     53.00      0.8190      0.8190
     54.00      0.8409      0.8409
     55.00      0.8627      0.8627
     56.00      0.8843      0.8843
     57.00      0.9055      0.9055
     58.00      0.9261      0.9261
     59.00      0.9464      0.9464
     60.00      0.9663      0.9663
     61.00      0.9858      0.9858
     62.00      1.0050      1.0050
     63.00      1.0237      1.0237
     64.00      1.0421      1.0421
     65.00      1.0601      1.0601
     66.00      1.0776      1.0776
     67.00      1.0946      1.0946
     68.00      1.1112      1.1112
     69.00      1.1269      1.1269
     70.00      1.1418      1.1418
     71.00      1.1560      1.1560
     72.00      1.1696      1.1696
     73.00      1.1827      1.1827
     74.00      1.1953      1.1953
     75.00      1.2073      1.2073
     76.00      1.2188      1.2188
     77.00      1.2298      1.2298
     78.00      1.2399      1.2399
     79.00      1.2489      1.2489
     80.00      1.2573      1.2573
     81.00      1.2647      1.2647
     82.00      1.2714      1.2714
     83.00      1.2773      1.2773
     84.00      1.2825      1.2825
     85.00      1.2870      1.2870
     86.00      1.2911      1.2911
     87.00      1.2942      1.2942
     88.00      1.2969      1.2969
     89.00      1.2991      1.2991
     90.00      1.3000      1.3000
     91.00      1.2991      1.2991
     92.00      1.2969      1.2969
     93.00      1.2942      1.2942
     94.00      1.2911      1.2911
     95.00      1.2870      1.2870
     96.00      1.2825      1.2825
     97.00      1.2773      1.2773
     98.00      1.2714      1.2714
     99.00      1.2647      1.2647
    100.00      1.2573      1.2573
    101.00      1.2489      1.2489
    102.00      1.2399      1.2399
    103.00      1.2298      1.2298
    104.00      1.2188      1.2188
    105.00      1.2073      1.2073
    106.00      1.1953      1.1953
    107.00      1.1827      1.1827
    108.00      1.1696      1.1696
    109.00      1.1560      1.1560
    110.00      1.1418      1.1418
    111.00      1.1269      1.1269
    112.00      1.1112      1.1112
    113.00      1.0946      1.0946
    114.00      1.0776      1.0776
    115.00      1.0601      1.0601
    116.00      1.0421      1.0421
    117.00      1.0237      1.0237
    118.00      1.0050      1.0050
    119.00      0.9858      0.9858
    120.00      0.9663      0.9663
    121.00      0.9464      0.9464
    122.00      0.9261      0.9261
    123.00      0.9055      0.9055
    124.00      0.8843      0.8843
    125.00      0.8627      0.8627
    126.00      0.8409      0.8409
    127.00      0.8190      0.8190
    128.00      0.7969      0.7969
    129.00      0.7746      0.7746
    130.00      0.7522      0.7522
    131.00      0.7297      0.7297
    132.00      0.7070      0.7070
    133.00      0.6843      0.6843
    134.00      0.6614      0.6614
    135.00      0.6385      0.6385
    136.00      0.6157      0.6157
    137.00      0.5929      0.5929
    138.00      0.5702      0.5702
    139.00      0.5476      0.5476
    140.00      0.5250      0.5250
    141.00      0.5026      0.5026
    142.00      0.4802      0.4802
    143.00      0.4580      0.4580
    144.00      0.4361      0.4361
    145.00      0.4146      0.4146
    146.00      0.3934      0.3934
    147.00      0.3725      0.3725
    148.00      0.3517      0.3517
    149.00      0.3312      0.3312
    150.00      0.3111      0.3111
    151.00      0.2915      0.2915
    152.00      0.2723      0.2723
    153.00      0.2537      0.2537
    154.00      0.2355      0.2355
    155.00      0.2178      0.2178
    156.00      0.2006      0.2006
    157.00      0.1839      0.1839
    158.00      0.1677      0.1677
    159.00      0.1521      0.1521
    160.00      0.1371      0.1371
    161.00      0.1226      0.1226
    162.00      0.1089      0.1089
    163.00      0.0955      0.0955
    164.00      0.0827      0.0827
    165.00      0.0719      0.0719
    166.00      0.0627      0.0627
    167.00      0.0548      0.0548
    168.00      0.0492      0.0492
    169.00      0.0458      0.0458
    170.00      0.0432      0.0432
    171.00      0.0410      0.0410
    172.00      0.0391      0.0391
    173.00      0.0375      0.0375
    174.00      0.0361      0.0361
    175.00      0.0348      0.0348
    176.00      0.0337      0.0337
    177.00      0.0330      0.0330
    178.00      0.0325      0.0325
    179.00      0.0320      0.0320
    180.00      0.0318      0.0318
                0.0000      1.0000
   -180.00      0.0000      0.0000
   -179.00      0.0400      0.0400
   -178.00      0.0800      0.0800
   -177.00      0.1200      0.1200
   -176.00      0.1600      0.1600
   -175.00      0.2000      0.2000
   -174.00      0.2400      0.2400
   -173.00      0.2841      0.2841
   -172.00      0.3282      0.3282
   -171.00      0.3600      0.3600
   -170.00      0.3802      0.3802
   -169.00      0.3959      0.3959
   -168.00      0.4043      0.4043
   -167.00      0.4072      0.4072
   -166.00      0.4090      0.4090
   -165.00      0.4108      0.4108
   -164.00      0.4128      0.4128
   -163.00      0.4148      0.4148
   -162.00      0.4173      0.4173
   -161.00      0.4204      0.4204
   -160.00      0.4244      0.4244
   -159.00      0.4291      0.4291
   -158.00      0.4356      0.4356
   -157.00      0.4436      0.4436
   -156.00      0.4516      0.4516
   -155.00      0.4593      0.4593
   -154.00      0.4669      0.4669
   -153.00      0.4742      0.4742
   -152.00      0.4823      0.4823
   -151.00      0.4901      0.4901
   -150.00      0.4937      0.4937
   -149.00      0.4918      0.4918
   -148.00      0.4875      0.4875
   -147.00      0.4829      0.4829
   -146.00      0.4785      0.4785
   -145.00      0.4737      0.4737
   -144.00      0.4690      0.4690
   -143.00      0.4644      0.4644
   -142.00      0.4598      0.4598
   -141.00      0.4557      0.4557
   -140.00      0.4521      0.4521
   -139.00      0.4487      0.4487
   -138.00      0.4458      0.4458
   -137.00      0.4432      0.4432
   -136.00      0.4408      0.4408
   -135.00      0.4385      0.4385
   -134.00      0.4358      0.4358
   -133.00      0.4332      0.4332
   -132.00      0.4311      0.4311
   -131.00      0.4296      0.4296
   -130.00      0.4284      0.4284
   -129.00      0.4275      0.4275
   -128.00      0.4267      0.4267
   -127.00      0.4261      0.4261
   -126.00      0.4257      0.4257
   -125.00      0.4255      0.4255
   -124.00      0.4254      0.4254
   -123.00      0.4253      0.4253
   -122.00      0.4253      0.4253
   -121.00      0.4253      0.4253
   -120.00      0.4253      0.4253
   -119.00      0.4254      0.4254
   -118.00      0.4256      0.4256
   -117.00      0.4259      0.4259
   -116.00      0.4262      0.4262
   -115.00      0.4266      0.4266
   -114.00      0.4270      0.4270
   -113.00      0.4274      0.4274
   -112.00      0.4278      0.4278
   -111.00      0.4280      0.4280
   -110.00      0.4279      0.4279
   -109.00      0.4278      0.4278
   -108.00      0.4276      0.4276
   -107.00      0.4274      0.4274
   -106.00      0.4272      0.4272
   -105.00      0.4269      0.4269
   -104.00      0.4267      0.4267
   -103.00      0.4263      0.4263
   -102.00      0.4259      0.4259
   -101.00      0.4253      0.4253
   -100.00      0.4245      0.4245
    -99.00      0.4235      0.4235
    -98.00      0.4224      0.4224
    -97.00      0.4210      0.4210
    -96.00      0.4196      0.4196
    -95.00      0.4181      0.4181
    -94.00      0.4166      0.4166
    -93.00      0.4151      0.4151
    -92.00      0.4137      0.4137
    -91.00      0.4123      0.4123
    -90.00      0.4106      0.4106
    -89.00      0.4079      0.4079
    -88.00      0.4045      0.4045
    -87.00      0.4011      0.4011
    -86.00      0.3980      0.3980
    -85.00      0.3948      0.3948
    -84.00      0.3916      0.3916
    -83.00      0.3884      0.3884
    -82.00      0.3851      0.3851
    -81.00      0.3818      0.3818
    -80.00      0.3782      0.3782
    -79.00      0.3745      0.3745
    -78.00      0.3706      0.3706
    -77.00      0.3667      0.3667
    -76.00      0.3626      0.3626
    -75.00      0.3585      0.3585