IEA-15-240-RWT_AeroDyn15_Polar_05; 2 361 2 361 2 361
                0.0000      1.0000
   -180.00      0.0000      0.0000
   -179.00      0.0394      0.0394
   -178.00      0.0790      0.0790
   -177.00      0.1187      0.1187
   -176.00      0.1587      0.1587
   -175.00      0.1989      0.1989
   -174.00      0.2391      0.2391
   -173.00      0.2792      0.2792
   -172.00      0.3193      0.3193
   -171.00      0.3594      0.3594
   -170.00      0.3994      0.3994
   -169.00      0.4394      0.4394
   -168.00      0.4794      0.4794
   -167.00      0.5194      0.5194
   -166.00      0.5593      0.5593
   -165.00      0.5992      0.5992
   -164.00      0.6409      0.6409
   -163.00      0.6825      0.6825
   -162.00      0.7190      0.7190
   -161.00      0.7539      0.7539
   -160.00      0.7852      0.7852
   -159.00      0.8000      0.8000
   -158.00      0.8014      0.8014
   -157.00      0.8022      0.8022
   -156.00      0.8031      0.8031
   -155.00      0.8041      0.8041
   -154.00      0.8051      0.8051
   -153.00      0.8062      0.8062
   -152.00      0.8075      0.8075
   -151.00      0.8087      0.8087
   -150.00      0.8093      0.8093
   -149.00      0.7814      0.7814
   -148.00      0.7257      0.7257
   -147.00      0.6841      0.6841
   -146.00      0.6676      0.6676
   -145.00      0.6558      0.6558
   -144.00      0.6433      0.6433
   -143.00      0.6276      0.6276
   -142.00      0.6111      0.6111
   -141.00      0.5959      0.5959
   -140.00      0.5825      0.5825
   -139.00      0.5702      0.5702
   -138.00      0.5584      0.5584
   -137.00      0.5471      0.5471
   -136.00      0.5362      0.5362
   -135.00      0.5252      0.5252
   -134.00      0.5139      0.5139
   -133.00      0.5024      0.5024
   -132.00      0.4909      0.4909
   -131.00      0.4795      0.4795
   -130.00      0.4680      0.4680
   -129.00      0.4565      0.4565
   -128.00      0.4451      0.4451
   -127.00      0.4337      0.4337
   -126.00      0.4224      0.4224
   -125.00      0.4111      0.4111
   -124.00      0.3998      0.3998
   -123.00      0.3887      0.3887
   -122.00      0.3778      0.3778
   -121.00      0.3671      0.3671
   -120.00      0.3560      0.3560
   -119.00      0.3441      0.3441
   -118.00      0.3318      0.3318
   -117.00      0.3196      0.3196
   -116.00      0.3076      0.3076
   -115.00      0.2957      0.2957
   -114.00      0.2838      0.2838
   -113.00      0.2721      0.2721
   -112.00      0.2604      0.2604
   -111.00      0.2487      0.2487
   -110.00      0.2368      0.2368
   -109.00      0.2249      0.2249
   -108.00      0.2128      0.2128
   -107.00      0.2007      0.2007
   -106.00      0.1886      0.1886
   -105.00      0.1764      0.1764
   -104.00      0.1642      0.1642
   -103.00      0.1520      0.1520
   -102.00      0.1399      0.1399
   -101.00      0.1279      0.1279
   -100.00      0.1161      0.1161
    -99.00      0.1044      0.1044
    -98.00      0.0931      0.0931
    -97.00      0.0820      0.0820
    -96.00      0.0708      0.0708
    -95.00      0.0593      0.0593
    -94.00      0.0478      0.0478
    -93.00      0.0360      0.0360
    -92.00      0.0241      0.0241
    -91.00      0.0121      0.0121
    -90.00      0.0000      0.0000
    -89.00     -0.0120     -0.0120
    -88.00     -0.0241     -0.0241
    -87.00     -0.0360     -0.0360
    -86.00     -0.0477     -0.0477
    -85.00     -0.0593     -0.0593
    -84.00     -0.0707     -0.0707
    -83.00     -0.0819     -0.0819
    -82.00     -0.0931     -0.0931
    -81.00     -0.1044     -0.1044
    -80.00     -0.1160     -0.1160
    -79.00     -0.1279     -0.1279
    -78.00     -0.1399     -0.1399
    -77.00     -0.1520     -0.1520
    -76.00     -0.1642     -0.1642
    -75.00     -0.1764     -0.1764
    -74.00     -0.1885     -0.1885
    -73.00     -0.2007     -0.2007
    -72.00     -0.2128     -0.2128
    -71.00     -0.2248     -0.2248
    -70.00     -0.2368     -0.2368
    -69.00     -0.2487     -0.2487
    -68.00     -0.2604     -0.2604
    -67.00     -0.2720     -0.2720
    -66.00     -0.2837     -0.2837
    -65.00     -0.2955     -0.2955
    -64.00     -0.3074     -0.3074
    -63.00     -0.3194     -0.3194
    -62.00     -0.3316     -0.3316
    -61.00     -0.3439     -0.3439
    -60.00     -0.3558     -0.3558
    -59.00     -0.3669     -0.3669
    -58.00     -0.3777     -0.3777
    -57.00     -0.3885     -0.3885
    -56.00     -0.3997     -0.3997
    -55.00     -0.4110     -0.4110
    -54.00     -0.4223     -0.4223
    -53.00     -0.4337     -0.4337
    -52.00     -0.4451     -0.4451
    -51.00     -0.4565     -0.4565
    -50.00     -0.4679     -0.4679
    -49.00     -0.4794     -0.4794
    -48.00     -0.4909     -0.4909
    -47.00     -0.5014     -0.5014
    -46.00     -0.5120     -0.5120
    -45.00     -0.5252     -0.5252
    -44.00     -0.5450     -0.5450
    -43.00     -0.5702     -0.5702
    -42.00     -0.5958     -0.5958
    -41.00     -0.6202     -0.6202
    -40.00     -0.6450     -0.6450
    -39.00     -0.6708     -0.6708
    -38.00     -0.6986     -0.6986
    -37.00     -0.7275     -0.7275
    -36.00     -0.7557     -0.7557
    -35.00     -0.7827     -0.7827
    -34.00     -0.8090     -0.8090
    -33.00     -0.8341     -0.8341
    -32.00     -0.8623     -0.8623
    -31.00     -0.8894     -0.8894
    -30.00     -0.9017     -0.9017
    -29.00     -0.9022     -0.9022
    -28.00     -0.9055     -0.9055
    -27.00     -0.9369     -0.9369
    -26.00     -0.9713     -0.9713
    -25.00     -1.0057     -1.0057
    -24.00     -1.0309     -1.0309
    -23.00     -1.0596     -1.0596
    -22.00     -1.0892     -1.0892
    -21.00     -1.1037     -1.1037
    -20.00     -1.1111     -1.1111
    -19.00     -1.0893     -1.0893
    -18.00     -1.0770     -1.0770
    -17.00     -1.0656     -1.0656
    -16.00     -1.0286     -1.0286
    -15.00     -0.9638     -0.9638
    -14.00     -0.8934     -0.8934
    -13.00     -0.8258     -0.8258
    -12.00     -0.7522     -0.7522
    -11.00     -0.6739     -0.6739
    -10.00     -0.6064     -0.6064
     -9.00     -0.5198     -0.5198
     -8.00     -0.4148     -0.4148
     -7.00     -0.3139     -0.3139
     -6.00     -0.2123     -0.2123
     -5.00     -0.1133     -0.1133
     -4.00     -0.0255     -0.0255
     -3.00      0.0663      0.0663
     -2.00      0.1624      0.1624
     -1.00      0.2516      0.2516
      0.00      0.3353      0.3353
      1.00      0.4244      0.4244
      2.00      0.5144      0.5144
      3.00      0.6044      0.6044
      4.00      0.6941      0.6941
      5.00      0.7838      0.7838
      6.00      0.8731      0.8731
      7.00      0.9622      0.9622
      8.00      1.0510      1.0510
      9.00      1.1396      1.1396
     10.00      1.2207      1.2207
     11.00      1.2989      1.2989
     12.00      1.3693      1.3693
     13.00      1.4494      1.4494
     14.00      1.5280      1.5280
     15.00      1.5823      1.5823
     16.00      1.6230      1.6230
     17.00      1.6775      1.6775
     18.00      1.6925      1.6925
     19.00      1.6726      1.6726
     20.00      1.6525      1.6525
     21.00      1.6221      1.6221
     22.00      1.6032      1.6032
     23.00      1.5978      1.5978
     24.00      1.5944      1.5944
     25.00      1.5652      1.5652
     26.00      1.5135      1.5135
     27.00      1.4604      1.4604
     28.00      1.4007      1.4007
     29.00      1.3199      1.3199
     30.00      1.2511      1.2511
     31.00      1.1986      1.1986
     32.00      1.1516      1.1516
     33.00      1.1110      1.1110
     34.00      1.0775      1.0775
     35.00      1.0483      1.0483
     36.00      1.0180      1.0180
     37.00      0.9841      0.9841
     38.00      0.9490      0.9490
     39.00      0.9158      0.9158
     40.00      0.8856      0.8856
     41.00      0.8570      0.8570
     42.00      0.8289      0.8289
     43.00      0.7994      0.7994
     44.00      0.7704      0.7704
     45.00      0.7465      0.7465
     46.00      0.7291      0.7291
     47.00      0.7145      0.7145
     48.00      0.6999      0.6999
     49.00      0.6841      0.6841
     50.00      0.6682      0.6682
     51.00      0.6522      0.6522
     52.00      0.6360      0.6360
     53.00      0.6197      0.6197
     54.00      0.6034      0.6034
     55.00      0.5873      0.5873
     56.00      0.5712      0.5712
     57.00      0.5553      0.5553
     58.00      0.5398      0.5398
     59.00      0.5245      0.5245
     60.00      0.5086      0.5086
     61.00      0.4916      0.4916
     62.00      0.4740      0.4740
     63.00      0.4566      0.4566
     64.00      0.4394      0.4394
     65.00      0.4224      0.4224
     66.00      0.4055      0.4055
     67.00      0.3887      0.3887
     68.00      0.3721      0.3721
     69.00      0.3553      0.3553
     70.00      0.3384      0.3384
     71.00      0.3213      0.3213
     72.00      0.3041      0.3041
     73.00      0.2868      0.2868
     74.00      0.2694      0.2694
     75.00      0.2520      0.2520
     76.00      0.2346      0.2346
     77.00      0.2172      0.2172
     78.00      0.1999      0.1999
     79.00      0.1828      0.1828
     80.00      0.1659      0.1659
     81.00      0.1492      0.1492
     82.00      0.1330      0.1330
     83.00      0.1172      0.1172
     84.00      0.1011      0.1011
     85.00      0.0848      0.0848
     86.00      0.0683      0.0683
     87.00      0.0515      0.0515
     88.00      0.0338      0.0338
     89.00      0.0159      0.0159
     90.00      0.0000      0.0000
     91.00     -0.0130     -0.0130
     92.00     -0.0246     -0.0246
     93.00     -0.0360     -0.0360
     94.00     -0.0477     -0.0477
     95.00     -0.0593     -0.0593
     96.00     -0.0707     -0.0707
     97.00     -0.0819     -0.0819
     98.00     -0.0931     -0.0931
     99.00     -0.1044     -0.1044
    100.00     -0.1160     -0.1160
    101.00     -0.1279     -0.1279
    102.00     -0.1399     -0.1399
    103.00     -0.1520     -0.1520
    104.00     -0.1642     -0.1642
    105.00     -0.1764     -0.1764
    106.00     -0.1885     -0.1885
    107.00     -0.2007     -0.2007
    108.00     -0.2128     -0.2128
    109.00     -0.2248     -0.2248
    110.00     -0.2368     -0.2368
    111.00     -0.2487     -0.2487
    112.00     -0.2604     -0.2604
    113.00     -0.2720     -0.2720
    114.00     -0.2837     -0.2837
    115.00     -0.2955     -0.2955
    116.00     -0.3074     -0.3074
    117.00     -0.3194     -0.3194
    118.00     -0.3316     -0.3316
    119.00     -0.3439     -0.3439
    120.00     -0.3558     -0.3558
    121.00     -0.3669     -0.3669
    122.00     -0.3777     -0.3777
    123.00     -0.3885     -0.3885
    124.00     -0.3997     -0.3997
    125.00     -0.4110     -0.4110
    126.00     -0.4223     -0.4223
    127.00     -0.4337     -0.4337
    128.00     -0.4451     -0.4451
    129.00     -0.4565     -0.4565
    130.00     -0.4679     -0.4679
    131.00     -0.4794     -0.4794
    132.00     -0.4909     -0.4909
    133.00     -0.5024     -0.5024
    134.00     -0.5138     -0.5138
    135.00     -0.5252     -0.5252
    136.00     -0.5362     -0.5362
    137.00     -0.5470     -0.5470
    138.00     -0.5583     -0.5583
    139.00     -0.5702     -0.5702
    140.00     -0.5825     -0.5825
    141.00     -0.5958     -0.5958
    142.00     -0.6111     -0.6111
    143.00     -0.6275     -0.6275
    144.00     -0.6432     -0.6432
    145.00     -0.6558     -0.6558
    146.00     -0.6676     -0.6676
    147.00     -0.6841     -0.6841
    148.00     -0.7256     -0.7256
    149.00     -0.7814     -0.7814
    150.00     -0.8093     -0.8093
    151.00     -0.8087     -0.8087
    152.00     -0.8074     -0.8074
    153.00     -0.8061     -0.8061
    154.00     -0.8051     -0.8051
    155.00     -0.8041     -0.8041
    156.00     -0.8030     -0.8030
    157.00     -0.8022     -0.8022
    158.00     -0.8014     -0.8014
    159.00     -0.7999     -0.7999
    160.00     -0.7852     -0.7852
    161.00     -0.7538     -0.7538
    162.00     -0.7190     -0.7190
    163.00     -0.6825     -0.6825
    164.00     -0.6408     -0.6408
    165.00     -0.5991     -0.5991
    166.00     -0.5592     -0.5592
    167.00     -0.5192     -0.5192
    168.00     -0.4793     -0.4793
    169.00     -0.4393     -0.4393
    170.00     -0.3993     -0.3993
    171.00     -0.3593     -0.3593
    172.00     -0.3192     -0.3192
    173.00     -0.2791     -0.2791
    174.00     -0.2390     -0.2390
    175.00     -0.1988     -0.1988
    176.00     -0.1586     -0.1586
    177.00     -0.1187     -0.1187
    178.00     -0.0789     -0.0789
    179.00     -0.0394     -0.0394
    180.00      0.0000      0.0000
                0.0000      1.0000
   -180.00      0.1705      0.1705
   -179.00      0.1704      0.1704
   -178.00      0.1701      0.1701
   -177.00      0.1697      0.1697
   -176.00      0.1692      0.1692
   -175.00      0.1685      0.1685
   -174.00      0.1676      0.1676
   -173.00      0.1663      0.1663
   -172.00      0.1648      0.1648
   -171.00      0.1641      0.1641
   -170.00      0.1656      0.1656
   -169.00      0.1688      0.1688
   -168.00      0.1714      0.1714
   -167.00      0.1732      0.1732
   -166.00      0.1747      0.1747
   -165.00      0.1754      0.1754
   -164.00      0.1725      0.1725
   -163.00      0.1672      0.1672
   -162.00      0.1643      0.1643
   -161.00      0.1659      0.1659
   -160.00      0.1700      0.1700
   -159.00      0.1755      0.1755
   -158.00      0.1859      0.1859
   -157.00      0.2016      0.2016
   -156.00      0.2171      0.2171
   -155.00      0.2307      0.2307
   -154.00      0.2442      0.2442
   -153.00      0.2576      0.2576
   -152.00      0.2703      0.2703
   -151.00      0.2830      0.2830
   -150.00      0.2970      0.2970
   -149.00      0.3146      0.3146
   -148.00      0.3342      0.3342
   -147.00      0.3513      0.3513
   -146.00      0.3641      0.3641
   -145.00      0.3752      0.3752
   -144.00      0.3871      0.3871
   -143.00      0.4011      0.4011
   -142.00      0.4161      0.4161
   -141.00      0.4315      0.4315
   -140.00      0.4474      0.4474
   -139.00      0.4637      0.4637
   -138.00      0.4803      0.4803
   -137.00      0.4972      0.4972
   -136.00      0.5143      0.5143
   -135.00      0.5314      0.5314
   -134.00      0.5485      0.5485
   -133.00      0.5656      0.5656
   -132.00      0.5826      0.5826
   -131.00      0.5996      0.5996
   -130.00      0.6165      0.6165
   -129.00      0.6331      0.6331
   -128.00      0.6492      0.6492
   -127.00      0.6651      0.6651
   -126.00      0.6812      0.6812
   -125.00      0.6975      0.6975
   -124.00      0.7139      0.7139
   -123.00      0.7308      0.7308
   -122.00      0.7488      0.7488
   -121.00      0.7671      0.7671
   -120.00      0.7836      0.7836
   -119.00      0.7972      0.7972
   -118.00      0.8095      0.8095
   -117.00      0.8220      0.8220
   -116.00      0.8355      0.8355
   -115.00      0.8493      0.8493
   -114.00      0.8635      0.8635
   -113.00      0.8789      0.8789
   -112.00      0.8948      0.8948
   -111.00      0.9091      0.9091
   -110.00      0.9210      0.9210
   -109.00      0.9318      0.9318
   -108.00      0.9420      0.9420
   -107.00      0.9516      0.9516
   -106.00      0.9606      0.9606
   -105.00      0.9701      0.9701
   -104.00      0.9809      0.9809
   -103.00      0.9922      0.9922
   -102.00      1.0030      1.0030
   -101.00      1.0137      1.0137
   -100.00      1.0239      1.0239
    -99.00      1.0314      1.0314
    -98.00      1.0357      1.0357
    -97.00      1.0389      1.0389
    -96.00      1.0427      1.0427
    -95.00      1.0476      1.0476
    -94.00      1.0534      1.0534
    -93.00      1.0597      1.0597
    -92.00      1.0686      1.0686
    -91.00      1.0782      1.0782
    -90.00      1.0828      1.0828
    -89.00      1.0782      1.0782
    -88.00      1.0686      1.0686
    -87.00      1.0597      1.0597
    -86.00      1.0534      1.0534
    -85.00      1.0476      1.0476
    -84.00      1.0427      1.0427
    -83.00      1.0389      1.0389
    -82.00      1.0357      1.0357
    -81.00      1.0314      1.0314
    -80.00      1.0239      1.0239
    -79.00      1.0137      1.0137
    -78.00      1.0030      1.0030
    -77.00      0.9922      0.9922
    -76.00      0.9809      0.9809
    -75.00      0.9701      0.9701
    -74.00      0.9606      0.9606
    -73.00      0.9516      0.9516
    -72.00      0.9420      0.9420
    -71.00      0.9318      0.9318
    -70.00      0.9210      0.9210
    -69.00      0.9091      0.9091
    -68.00      0.8948      0.8948
    -67.00      0.8789      0.8789
    -66.00      0.8635      0.8635
    -65.00      0.8493      0.8493
    -64.00      0.8355      0.8355
    -63.00      0.8220      0.8220
    -62.00      0.8094      0.8094
    -61.00      0.7972      0.7972
    -60.00      0.7836      0.7836
    -59.00      0.7671      0.7671
    -58.00      0.7487      0.7487
    -57.00      0.7308      0.7308
    -56.00      0.7139      0.7139
    -55.00      0.6975      0.6975
    -54.00      0.6812      0.6812
    -53.00      0.6651      0.6651
    -52.00      0.6492      0.6492
    -51.00      0.6331      0.6331
    -50.00      0.6165      0.6165
    -49.00      0.5996      0.5996
    -48.00      0.5826      0.5826
    -47.00      0.5656      0.5656
    -46.00      0.5485      0.5485
    -45.00      0.5314      0.5314
    -44.00      0.5143      0.5143
    -43.00      0.4972      0.4972
    -42.00      0.4804      0.4804
    -41.00      0.4637      0.4637
    -40.00      0.4474      0.4474
    -39.00      0.4315      0.4315
    -38.00      0.4161      0.4161
    -37.00      0.4011      0.4011
    -36.00      0.3872      0.3872
    -35.00      0.3747      0.3747
    -34.00      0.3632      0.3632
    -33.00      0.3513      0.3513
    -32.00      0.3360      0.3360
    -31.00      0.3203      0.3203
    -30.00      0.3132      0.3132
    -29.00      0.3140      0.3140
    -28.00      0.3121      0.3121
    -27.00      0.3026      0.3026
    -26.00      0.2917      0.2917
    -25.00      0.2805      0.2805
    -24.00      0.2691      0.2691
    -23.00      0.2567      0.2567
    -22.00      0.2440      0.2440
    -21.00      0.2310      0.2310
    -20.00      0.2179      0.2179
    -19.00      0.2137      0.2137
    -18.00      0.2087      0.2087
    -17.00      0.2039      0.2039
    -16.00      0.2009      0.2009
    -15.00      0.1967      0.1967
    -14.00      0.1943      0.1943
    -13.00      0.1910      0.1910
    -12.00      0.1891      0.1891
    -11.00      0.1868      0.1868
    -10.00      0.1840      0.1840
     -9.00      0.1828      0.1828
     -8.00      0.1824      0.1824
     -7.00      0.1823      0.1823
     -6.00      0.1825      0.1825
     -5.00      0.1826      0.1826
     -4.00      0.1830      0.1830
     -3.00      0.1831      0.1831
     -2.00      0.1835      0.1835
     -1.00      0.1837      0.1837
      0.00      0.1839      0.1839
      1.00      0.1841      0.1841
      2.00      0.1842      0.1842
      3.00      0.1845      0.1845
      4.00      0.1846      0.1846
      5.00      0.1849      0.1849
      6.00      0.1850      0.1850
      7.00      0.1852      0.1852
      8.00      0.1854      0.1854
      9.00      0.1855      0.1855
     10.00      0.1855      0.1855
     11.00      0.1850      0.1850
     12.00      0.1844      0.1844
     13.00      0.1830      0.1830
     14.00      0.1815      0.1815
     15.00      0.1815      0.1815
     16.00      0.1832      0.1832
     17.00      0.1853      0.1853
     18.00      0.1905      0.1905
     19.00      0.1952      0.1952
     20.00      0.2002      0.2002
     21.00      0.2066      0.2066
     22.00      0.2106      0.2106
     23.00      0.2147      0.2147
     24.00      0.2217      0.2217
     25.00      0.2327      0.2327
     26.00      0.2469      0.2469
     27.00      0.2613      0.2613
     28.00      0.2756      0.2756
     29.00      0.2898      0.2898
     30.00      0.3054      0.3054
     31.00      0.3221      0.3221
     32.00      0.3388      0.3388
     33.00      0.3545      0.3545
     34.00      0.3685      0.3685
     35.00      0.3817      0.3817
     36.00      0.3951      0.3951
     37.00      0.4092      0.4092
     38.00      0.4236      0.4236
     39.00      0.4384      0.4384
     40.00      0.4540      0.4540
     41.00      0.4700      0.4700
     42.00      0.4861      0.4861
     43.00      0.5024      0.5024
     44.00      0.5188      0.5188
     45.00      0.5352      0.5352
     46.00      0.5515      0.5515
     47.00      0.5679      0.5679
     48.00      0.5842      0.5842
     49.00      0.6005      0.6005
     50.00      0.6168      0.6168
     51.00      0.6331      0.6331
     52.00      0.6491      0.6491
     53.00      0.6651      0.6651
     54.00      0.6812      0.6812
     55.00      0.6975      0.6975
     56.00      0.7139      0.7139
     57.00      0.7308      0.7308
     58.00      0.7487      0.7487
     59.00      0.7671      0.7671
     60.00      0.7836      0.7836
     61.00      0.7972      0.7972
     62.00      0.8094      0.8094
     63.00      0.8220      0.8220
     64.00      0.8355      0.8355
     65.00      0.8493      0.8493
     66.00      0.8635      0.8635
     67.00      0.8789      0.8789
     68.00      0.8948      0.8948
     69.00      0.9091      0.9091
     70.00      0.9210      0.9210
     71.00      0.9318      0.9318
     72.00      0.9420      0.9420
     73.00      0.9516      0.9516
     74.00      0.9606      0.9606
     75.00      0.9701      0.9701
     76.00      0.9809      0.9809
     77.00      0.9922      0.9922
     78.00      1.0030      1.0030
     79.00      1.0137      1.0137
     80.00      1.0239      1.0239
     81.00      1.0314      1.0314
     82.00      1.0357      1.0357
     83.00      1.0389      1.0389
     84.00      1.0427      1.0427
     85.00      1.0476      1.0476
     86.00      1.0534      1.0534
     87.00      1.0597      1.0597
     88.00      1.0686      1.0686
     89.00      1.0782      1.0782
     90.00      1.0828      1.0828
     91.00      1.0782      1.0782
     92.00      1.0686      1.0686
     93.00      1.0597      1.0597
     94.00      1.0534      1.0534
     95.00      1.0476      1.0476
     96.00      1.0427      1.0427
     97.00      1.0389      1.0389
     98.00      1.0357      1.0357
     99.00      1.0314      1.0314
    100.00      1.0239      1.0239
    101.00      1.0137      1.0137
    102.00      1.0030      1.0030
    103.00      0.9922      0.9922
    104.00      0.9809      0.9809
    105.00      0.9701      0.9701
    106.00      0.9606      0.9606
    107.00      0.9516      0.9516
    108.00      0.9420      0.9420
    109.00      0.9318      0.9318
    110.00      0.9210      0.9210
    111.00      0.9091      0.9091
    112.00      0.8948      0.8948
    113.00      0.8789      0.8789
    114.00      0.8635      0.8635
    115.00      0.8493      0.8493
    116.00      0.8355      0.8355
    117.00      0.8220      0.8220
    118.00      0.8095      0.8095
    119.00      0.7972      0.7972
    120.00      0.7836      0.7836
    121.00      0.7671      0.7671
    122.00      0.7488      0.7488
    123.00      0.7308      0.7308
    124.00      0.7139      0.7139
    125.00      0.6975      0.6975
    126.00      0.6812      0.6812
    127.00      0.6651      0.6651
    128.00      0.6492      0.6492
    129.00      0.6331      0.6331
    130.00      0.6165      0.6165
    131.00      0.5996      0.5996
    132.00      0.5826      0.5826
    133.00      0.5656      0.5656
    134.00      0.5485      0.5485
    135.00      0.5314      0.5314
    136.00      0.5143      0.5143
    137.00      0.4972      0.4972
    138.00      0.4803      0.4803
    139.00      0.4637      0.4637
    140.00      0.4474      0.4474
    141.00      0.4315      0.4315
    142.00      0.4161      0.4161
    143.00      0.4011      0.4011
    144.00      0.3871      0.3871
    145.00      0.3752      0.3752
    146.00      0.3641      0.3641
    147.00      0.3513      0.3513
    148.00      0.3342      0.3342
    149.00      0.3146      0.3146
    150.00      0.2970      0.2970
    151.00      0.2830      0.2830
    152.00      0.2703      0.2703
    153.00      0.2576      0.2576
    154.00      0.2442      0.2442
    155.00      0.2307      0.2307
    156.00      0.2171      0.2171
    157.00      0.2016      0.2016
    158.00      0.1859      0.1859
    159.00      0.1755      0.1755
    160.00      0.1700      0.1700
    161.00      0.1659      0.1659
    162.00      0.1643      0.1643
    163.00      0.1672      0.1672
    164.00      0.1725      0.1725
    165.00      0.1754      0.1754
    166.00      0.1747      0.1747
    167.00      0.1732      0.1732
    168.00      0.1714      0.1714
    169.00      0.1688      0.1688
    170.00      0.1656      0.1656
    171.00      0.1641      0.1641
    172.00      0.1648      0.1648
    173.00      0.1663      0.1663
    174.00      0.1676      0.1676
    175.00      0.1685      0.1685
    176.00      0.1692      0.1692
    177.00      0.1697      0.1697
    178.00      0.1701      0.1701
    179.00      0.1704      0.1704
    180.00      0.1705      0.1705
                0.0000      1.0000
   -180.00     -0.0000     -0.0000
   -179.00      0.0186      0.0186
   -178.00      0.0375      0.0375
   -177.00      0.0564      0.0564
   -176.00      0.0756      0.0756
   -175.00      0.0949      0.0949
   -174.00      0.1143      0.1143
   -173.00      0.1367      0.1367
   -172.00      0.1591      0.1591
   -171.00      0.1721      0.1721
   -170.00      0.1769      0.1769
   -169.00      0.1801      0.1801
   -168.00      0.1813      0.1813
   -167.00      0.1786      0.1786
   -166.00      0.1726      0.1726
   -165.00      0.1668      0.1668
   -164.00      0.1621      0.1621
   -163.00      0.1576      0.1576
   -162.00      0.1529      0.1529
   -161.00      0.1482      0.1482
   -160.00      0.1434      0.1434
   -159.00      0.1385      0.1385
   -158.00      0.1330      0.1330
   -157.00      0.1273      0.1273
   -156.00      0.1230      0.1230
   -155.00      0.1204      0.1204
   -154.00      0.1184      0.1184
   -153.00      0.1165      0.1165
   -152.00      0.1147      0.1147
   -151.00      0.1130      0.1130
   -150.00      0.1110      0.1110
   -149.00      0.1082      0.1082
   -148.00      0.1050      0.1050
   -147.00      0.1018      0.1018
   -146.00      0.0989      0.0989
   -145.00      0.0960      0.0960
   -144.00      0.0931      0.0931
   -143.00      0.0900      0.0900
   -142.00      0.0869      0.0869
   -141.00      0.0846      0.0846
   -140.00      0.0830      0.0830
   -139.00      0.0818      0.0818
   -138.00      0.0809      0.0809
   -137.00      0.0804      0.0804
   -136.00      0.0799      0.0799
   -135.00      0.0795      0.0795
   -134.00      0.0790      0.0790
   -133.00      0.0785      0.0785
   -132.00      0.0782      0.0782
   -131.00      0.0779      0.0779
   -130.00      0.0777      0.0777
   -129.00      0.0776      0.0776
   -128.00      0.0778      0.0778
   -127.00      0.0784      0.0784
   -126.00      0.0789      0.0789
   -125.00      0.0793      0.0793
   -124.00      0.0798      0.0798
   -123.00      0.0802      0.0802
   -122.00      0.0806      0.0806
   -121.00      0.0810      0.0810
   -120.00      0.0814      0.0814
   -119.00      0.0820      0.0820
   -118.00      0.0827      0.0827
   -117.00      0.0835      0.0835
   -116.00      0.0841      0.0841
   -115.00      0.0848      0.0848
   -114.00      0.0855      0.0855
   -113.00      0.0862      0.0862
   -112.00      0.0869      0.0869
   -111.00      0.0876      0.0876
   -110.00      0.0882      0.0882
   -109.00      0.0887      0.0887
   -108.00      0.0893      0.0893
   -107.00      0.0898      0.0898
   -106.00      0.0903      0.0903
   -105.00      0.0908      0.0908
   -104.00      0.0913      0.0913
   -103.00      0.0919      0.0919
   -102.00      0.0923      0.0923
   -101.00      0.0928      0.0928
   -100.00      0.0932      0.0932
    -99.00      0.0934      0.0934
    -98.00      0.0933      0.0933
    -97.00      0.0933      0.0933
    -96.00      0.0933      0.0933
    -95.00      0.0933      0.0933
    -94.00      0.0933      0.0933
    -93.00      0.0933      0.0933
    -92.00      0.0933      0.0933
    -91.00      0.0933      0.0933
    -90.00      0.0932      0.0932
    -89.00      0.0926      0.0926
    -88.00      0.0912      0.0912
    -87.00      0.0898      0.0898
    -86.00      0.0887      0.0887
    -85.00      0.0876      0.0876
    -84.00      0.0865      0.0865
    -83.00      0.0854      0.0854
    -82.00      0.0843      0.0843
    -81.00      0.0831      0.0831
    -80.00      0.0818      0.0818
    -79.00      0.0804      0.0804
    -78.00      0.0789      0.0789
    -77.00      0.0774      0.0774
    -76.00      0.0758      0.0758
    -75.00      0.0743      0.0743