IEA-15-240-RWT_AeroDyn15_Polar_13; 2 361 2 361 2 361
                0.0000      1.0000
   -180.00      0.0000      0.0000
   -179.00      0.0311      0.0311
   -178.00      0.0621      0.0621
   -177.00      0.0932      0.0932
   -176.00      0.1243      0.1243
   -175.00      0.1553      0.1553
   -174.00      0.1864      0.1864
   -173.00      0.2175      0.2175
   -172.00      0.2485      0.2485
   -171.00      0.2796      0.2796
   -170.00      0.3107      0.3107
   -169.00      0.3417      0.3417
   -168.00      0.3728      0.3728
   -167.00      0.4039      0.4039
   -166.00      0.4350      0.4350
   -165.00      0.4660      0.4660
   -164.00      0.4971      0.4971
   -163.00      0.5281      0.5281
   -162.00      0.5592      0.5592
   -161.00      0.5903      0.5903
   -160.00      0.6214      0.6214
   -159.00      0.6525      0.6525
   -158.00      0.6837      0.6837
   -157.00      0.7150      0.7150
   -156.00      0.7463      0.7463
   -155.00      0.7776      0.7776
   -154.00      0.8090      0.8090
   -153.00      0.8405      0.8405
   -152.00      0.8749      0.8749
   -151.00      0.9095      0.9095
   -150.00      0.9361      0.9361
   -149.00      0.9563      0.9563
   -148.00      0.9728      0.9728
   -147.00      0.9797      0.9797
   -146.00      0.9680      0.9680
   -145.00      0.9426      0.9426
   -144.00      0.9181      0.9181
   -143.00      0.8994      0.8994
   -142.00      0.8816      0.8816
   -141.00      0.8640      0.8640
   -140.00      0.8466      0.8466
   -139.00      0.8294      0.8294
   -138.00      0.8125      0.8125
   -137.00      0.7959      0.7959
   -136.00      0.7794      0.7794
   -135.00      0.7631      0.7631
   -134.00      0.7470      0.7470
   -133.00      0.7310      0.7310
   -132.00      0.7150      0.7150
   -131.00      0.6990      0.6990
   -130.00      0.6830      0.6830
   -129.00      0.6670      0.6670
   -128.00      0.6509      0.6509
   -127.00      0.6348      0.6348
   -126.00      0.6186      0.6186
   -125.00      0.6024      0.6024
   -124.00      0.5861      0.5861
   -123.00      0.5697      0.5697
   -122.00      0.5532      0.5532
   -121.00      0.5364      0.5364
   -120.00      0.5196      0.5196
   -119.00      0.5027      0.5027
   -118.00      0.4857      0.4857
   -117.00      0.4687      0.4687
   -116.00      0.4515      0.4515
   -115.00      0.4343      0.4343
   -114.00      0.4169      0.4169
   -113.00      0.3995      0.3995
   -112.00      0.3819      0.3819
   -111.00      0.3643      0.3643
   -110.00      0.3467      0.3467
   -109.00      0.3289      0.3289
   -108.00      0.3111      0.3111
   -107.00      0.2933      0.2933
   -106.00      0.2755      0.2755
   -105.00      0.2577      0.2577
   -104.00      0.2399      0.2399
   -103.00      0.2221      0.2221
   -102.00      0.2044      0.2044
   -101.00      0.1867      0.1867
   -100.00      0.1690      0.1690
    -99.00      0.1515      0.1515
    -98.00      0.1341      0.1341
    -97.00      0.1168      0.1168
    -96.00      0.0997      0.0997
    -95.00      0.0827      0.0827
    -94.00      0.0658      0.0658
    -93.00      0.0491      0.0491
    -92.00      0.0326      0.0326
    -91.00      0.0163      0.0163
    -90.00     -0.0000     -0.0000
    -89.00     -0.0163     -0.0163
    -88.00     -0.0326     -0.0326
    -87.00     -0.0491     -0.0491
    -86.00     -0.0658     -0.0658
    -85.00     -0.0827     -0.0827
    -84.00     -0.0997     -0.0997
    -83.00     -0.1168     -0.1168
    -82.00     -0.1341     -0.1341
    -81.00     -0.1515     -0.1515
    -80.00     -0.1690     -0.1690
    -79.00     -0.1867     -0.1867
    -78.00     -0.2044     -0.2044
    -77.00     -0.2221     -0.2221
    -76.00     -0.2399     -0.2399
    -75.00     -0.2577     -0.2577
    -74.00     -0.2755     -0.2755
    -73.00     -0.2933     -0.2933
    -72.00     -0.3111     -0.3111
    -71.00     -0.3289     -0.3289
    -70.00     -0.3467     -0.3467
    -69.00     -0.3643     -0.3643
    -68.00     -0.3819     -0.3819
    -67.00     -0.3995     -0.3995
    -66.00     -0.4169     -0.4169
    -65.00     -0.4343     -0.4343
    -64.00     -0.4515     -0.4515
    -63.00     -0.4687     -0.4687
    -62.00     -0.4857     -0.4857
    -61.00     -0.5027     -0.5027
    -60.00     -0.5196     -0.5196
    -59.00     -0.5364     -0.5364
    -58.00     -0.5532     -0.5532
    -57.00     -0.5697     -0.5697
    -56.00     -0.5861     -0.5861
    -55.00     -0.6024     -0.6024
    -54.00     -0.6186     -0.6186
    -53.00     -0.6348     -0.6348
    -52.00     -0.6509     -0.6509
    -51.00     -0.6670     -0.6670
    -50.00     -0.6830     -0.6830
    -49.00     -0.6990     -0.6990
    -48.00     -0.7150     -0.7150
    -47.00     -0.7301     -0.7301
    -46.00     -0.7451     -0.7451
    -45.00     -0.7631     -0.7631
    -44.00     -0.7883     -0.7883
    -43.00     -0.8191     -0.8191
    -42.00     -0.8500     -0.8500
    -41.00     -0.8794     -0.8794
    -40.00     -0.9091     -0.9091
    -39.00     -0.9390     -0.9390
    -38.00     -0.9690     -0.9690
    -37.00     -0.9994     -0.9994
    -36.00     -1.0306     -1.0306
    -35.00     -1.0623     -1.0623
    -34.00     -1.0949     -1.0949
    -33.00     -1.1297     -1.1297
    -32.00     -1.1674     -1.1674
    -31.00     -1.2078     -1.2078
    -30.00     -1.2508     -1.2508
    -29.00     -1.2976     -1.2976
    -28.00     -1.3393     -1.3393
    -27.00     -1.3445     -1.3445
    -26.00     -1.3447     -1.3447
    -25.00     -1.3441     -1.3441
    -24.00     -1.3238     -1.3238
    -23.00     -1.2901     -1.2901
    -22.00     -1.2561     -1.2561
    -21.00     -1.2224     -1.2224
    -20.00     -1.1878     -1.1878
    -19.00     -1.1514     -1.1514
    -18.00     -1.1148     -1.1148
    -17.00     -1.0764     -1.0764
    -16.00     -1.0382     -1.0382
    -15.00     -1.0042     -1.0042
    -14.00     -0.9709     -0.9709
    -13.00     -0.9409     -0.9409
    -12.00     -0.9111     -0.9111
    -11.00     -0.8788     -0.8788
    -10.00     -0.8457     -0.8457
     -9.00     -0.7516     -0.7516
     -8.00     -0.6557     -0.6557
     -7.00     -0.5329     -0.5329
     -6.00     -0.4065     -0.4065
     -5.00     -0.2736     -0.2736
     -4.00     -0.1392     -0.1392
     -3.00      0.0078      0.0078
     -2.00      0.1558      0.1558
     -1.00      0.3057      0.3057
      0.00      0.4533      0.4533
      1.00      0.5991      0.5991
      2.00      0.7422      0.7422
      3.00      0.8826      0.8826
      4.00      1.0206      1.0206
      5.00      1.1555      1.1555
      6.00      1.2871      1.2871
      7.00      1.4152      1.4152
      8.00      1.5372      1.5372
      9.00      1.6525      1.6525
     10.00      1.7597      1.7597
     11.00      1.8482      1.8482
     12.00      1.9218      1.9218
     13.00      1.9728      1.9728
     14.00      1.9894      1.9894
     15.00      2.0068      2.0068
     16.00      2.0124      2.0124
     17.00      1.9825      1.9825
     18.00      1.9503      1.9503
     19.00      1.9062      1.9062
     20.00      1.8641      1.8641
     21.00      1.8439      1.8439
     22.00      1.8194      1.8194
     23.00      1.7803      1.7803
     24.00      1.7421      1.7421
     25.00      1.7303      1.7303
     26.00      1.7095      1.7095
     27.00      1.6877      1.6877
     28.00      1.6666      1.6666
     29.00      1.6469      1.6469
     30.00      1.6280      1.6280
     31.00      1.6058      1.6058
     32.00      1.5797      1.5797
     33.00      1.5496      1.5496
     34.00      1.5116      1.5116
     35.00      1.4672      1.4672
     36.00      1.4241      1.4241
     37.00      1.3849      1.3849
     38.00      1.3469      1.3469
     39.00      1.3093      1.3093
     40.00      1.2719      1.2719
     41.00      1.2349      1.2349
     42.00      1.1983      1.1983
     43.00      1.1603      1.1603
     44.00      1.1226      1.1226
     45.00      1.0902      1.0902
     46.00      1.0650      1.0650
     47.00      1.0433      1.0433
     48.00      1.0215      1.0215
     49.00      0.9986      0.9986
     50.00      0.9758      0.9758
     51.00      0.9529      0.9529
     52.00      0.9299      0.9299
     53.00      0.9069      0.9069
     54.00      0.8838      0.8838
     55.00      0.8606      0.8606
     56.00      0.8373      0.8373
     57.00      0.8139      0.8139
     58.00      0.7902      0.7902
     59.00      0.7664      0.7664
     60.00      0.7423      0.7423
     61.00      0.7182      0.7182
     62.00      0.6939      0.6939
     63.00      0.6695      0.6695
     64.00      0.6450      0.6450
     65.00      0.6204      0.6204
     66.00      0.5956      0.5956
     67.00      0.5707      0.5707
     68.00      0.5456      0.5456
     69.00      0.5205      0.5205
     70.00      0.4952      0.4952
     71.00      0.4699      0.4699
     72.00      0.4445      0.4445
     73.00      0.4191      0.4191
     74.00      0.3936      0.3936
     75.00      0.3682      0.3682
     76.00      0.3428      0.3428
     77.00      0.3173      0.3173
     78.00      0.2920      0.2920
     79.00      0.2667      0.2667
     80.00      0.2415      0.2415
     81.00      0.2164      0.2164
     82.00      0.1916      0.1916
     83.00      0.1669      0.1669
     84.00      0.1424      0.1424
     85.00      0.1181      0.1181
     86.00      0.0941      0.0941
     87.00      0.0702      0.0702
     88.00      0.0457      0.0457
     89.00      0.0215      0.0215
     90.00      0.0000      0.0000
     91.00     -0.0176     -0.0176
     92.00     -0.0333     -0.0333
     93.00     -0.0491     -0.0491
     94.00     -0.0658     -0.0658
     95.00     -0.0827     -0.0827
     96.00     -0.0997     -0.0997
     97.00     -0.1168     -0.1168
     98.00     -0.1341     -0.1341
     99.00     -0.1515     -0.1515
    100.00     -0.1690     -0.1690
    101.00     -0.1867     -0.1867
    102.00     -0.2044     -0.2044
    103.00     -0.2221     -0.2221
    104.00     -0.2399     -0.2399
    105.00     -0.2577     -0.2577
    106.00     -0.2755     -0.2755
    107.00     -0.2933     -0.2933
    108.00     -0.3111     -0.3111
    109.00     -0.3289     -0.3289
    110.00     -0.3467     -0.3467
    111.00     -0.3643     -0.3643
    112.00     -0.3819     -0.3819
    113.00     -0.3995     -0.3995
    114.00     -0.4169     -0.4169
    115.00     -0.4343     -0.4343
    116.00     -0.4515     -0.4515
    117.00     -0.4687     -0.4687
    118.00     -0.4857     -0.4857
    119.00     -0.5027     -0.5027
    120.00     -0.5196     -0.5196
    121.00     -0.5364     -0.5364
    122.00     -0.5532     -0.5532
    123.00     -0.5697     -0.5697
    124.00     -0.5861     -0.5861
    125.00     -0.6024     -0.6024
    126.00     -0.6186     -0.6186
    127.00     -0.6348     -0.6348
    128.00     -0.6509     -0.6509
    129.00     -0.6670     -0.6670
    130.00     -0.6830     -0.6830
    131.00     -0.6990     -0.6990
    132.00     -0.7150     -0.7150
    133.00     -0.7310     -0.7310
    134.00     -0.7470     -0.7470
    135.00     -0.7631     -0.7631
    136.00     -0.7794     -0.7794
    137.00     -0.7959     -0.7959
    138.00     -0.8125     -0.8125
    139.00     -0.8294     -0.8294
    140.00     -0.8466     -0.8466
    141.00     -0.8640     -0.8640
    142.00     -0.8816     -0.8816
    143.00     -0.8994     -0.8994
    144.00     -0.9181     -0.9181
    145.00     -0.9426     -0.9426
    146.00     -0.9680     -0.9680
    147.00     -0.9797     -0.9797
    148.00     -0.9728     -0.9728
    149.00     -0.9563     -0.9563
    150.00     -0.9361     -0.9361
    151.00     -0.9095     -0.9095
    152.00     -0.8749     -0.8749
    153.00     -0.8405     -0.8405
    154.00     -0.8090     -0.8090
    155.00     -0.7776     -0.7776
    156.00     -0.7463     -0.7463
    157.00     -0.7150     -0.7150
    158.00     -0.6837     -0.6837
    159.00     -0.6525     -0.6525
    160.00     -0.6214     -0.6214
    161.00     -0.5903     -0.5903
    162.00     -0.5592     -0.5592
    163.00     -0.5281     -0.5281
    164.00     -0.4971     -0.4971
    165.00     -0.4660     -0.4660
    166.00     -0.4349     -0.4349
    167.00     -0.4039     -0.4039
    168.00     -0.3728     -0.3728
    169.00     -0.3417     -0.3417
    170.00     -0.3107     -0.3107
    171.00     -0.2796     -0.2796
    172.00     -0.2485     -0.2485
    173.00     -0.2175     -0.2175
    174.00     -0.1864     -0.1864
    175.00     -0.1553     -0.1553
    176.00     -0.1243     -0.1243
    177.00     -0.0932     -0.0932
    178.00     -0.0621     -0.0621
    179.00     -0.0311     -0.0311
    180.00     -0.0000     -0.0000
                0.0000      1.0000
   -180.00      0.0352      0.0352
   -179.00      0.0354      0.0354
   -178.00      0.0359      0.0359
   -177.00      0.0364      0.0364
   -176.00      0.0372      0.0372
   -175.00      0.0382      0.0382
   -174.00      0.0395      0.0395
   -173.00      0.0409      0.0409
   -172.00      0.0425      0.0425
   -171.00      0.0444      0.0444
   -170.00      0.0465      0.0465
   -169.00      0.0490      0.0490
   -168.00      0.0522      0.0522
   -167.00      0.0575      0.0575
   -166.00      0.0650      0.0650
   -165.00      0.0738      0.0738
   -164.00      0.0845      0.0845
   -163.00      0.0975      0.0975
   -162.00      0.1111      0.1111
   -161.00      0.1249      0.1249
   -160.00      0.1394      0.1394
   -159.00      0.1545      0.1545
   -158.00      0.1701      0.1701
   -157.00      0.1863      0.1863
   -156.00      0.2030      0.2030
   -155.00      0.2201      0.2201
   -154.00      0.2378      0.2378
   -153.00      0.2560      0.2560
   -152.00      0.2746      0.2746
   -151.00      0.2937      0.2937
   -150.00      0.3133      0.3133
   -149.00      0.3334      0.3334
   -148.00      0.3539      0.3539
   -147.00      0.3747      0.3747
   -146.00      0.3956      0.3956
   -145.00      0.4167      0.4167
   -144.00      0.4382      0.4382
   -143.00      0.4601      0.4601
   -142.00      0.4823      0.4823
   -141.00      0.5046      0.5046
   -140.00      0.5270      0.5270
   -139.00      0.5495      0.5495
   -138.00      0.5721      0.5721
   -137.00      0.5948      0.5948
   -136.00      0.6175      0.6175
   -135.00      0.6403      0.6403
   -134.00      0.6632      0.6632
   -133.00      0.6860      0.6860
   -132.00      0.7088      0.7088
   -131.00      0.7314      0.7314
   -130.00      0.7539      0.7539
   -129.00      0.7762      0.7762
   -128.00      0.7984      0.7984
   -127.00      0.8205      0.8205
   -126.00      0.8424      0.8424
   -125.00      0.8641      0.8641
   -124.00      0.8857      0.8857
   -123.00      0.9069      0.9069
   -122.00      0.9275      0.9275
   -121.00      0.9477      0.9477
   -120.00      0.9676      0.9676
   -119.00      0.9871      0.9871
   -118.00      1.0062      1.0062
   -117.00      1.0249      1.0249
   -116.00      1.0432      1.0432
   -115.00      1.0612      1.0612
   -114.00      1.0786      1.0786
   -113.00      1.0956      1.0956
   -112.00      1.1121      1.1121
   -111.00      1.1278      1.1278
   -110.00      1.1427      1.1427
   -109.00      1.1569      1.1569
   -108.00      1.1704      1.1704
   -107.00      1.1835      1.1835
   -106.00      1.1961      1.1961
   -105.00      1.2080      1.2080
   -104.00      1.2195      1.2195
   -103.00      1.2304      1.2304
   -102.00      1.2404      1.2404
   -101.00      1.2494      1.2494
   -100.00      1.2578      1.2578
    -99.00      1.2651      1.2651
    -98.00      1.2717      1.2717
    -97.00      1.2776      1.2776
    -96.00      1.2827      1.2827
    -95.00      1.2873      1.2873
    -94.00      1.2913      1.2913
    -93.00      1.2944      1.2944
    -92.00      1.2970      1.2970
    -91.00      1.2991      1.2991
    -90.00      1.3000      1.3000
    -89.00      1.2991      1.2991
    -88.00      1.2970      1.2970
    -87.00      1.2944      1.2944
    -86.00      1.2913      1.2913
    -85.00      1.2873      1.2873
    -84.00      1.2827      1.2827
    -83.00      1.2776      1.2776
    -82.00      1.2717      1.2717
    -81.00      1.2651      1.2651
    -80.00      1.2578      1.2578
    -79.00      1.2494      1.2494
    -78.00      1.2404      1.2404
    -77.00      1.2304      1.2304
    -76.00      1.2195      1.2195
    -75.00      1.2080      1.2080
    -74.00      1.1961      1.1961
    -73.00      1.1835      1.1835
    -72.00      1.1704      1.1704
    -71.00      1.1569      1.1569
    -70.00      1.1427      1.1427
    -69.00      1.1278      1.1278
    -68.00      1.1121      1.1121
    -67.00      1.0956      1.0956
    -66.00      1.0786      1.0786
    -65.00      1.0612      1.0612
    -64.00      1.0432      1.0432
    -63.00      1.0249      1.0249
    -62.00      1.0062      1.0062
    -61.00      0.9871      0.9871
    -60.00      0.9676      0.9676
    -59.00      0.9477      0.9477
    -58.00      0.9275      0.9275
    -57.00      0.9069      0.9069
    -56.00      0.8857      0.8857
    -55.00      0.8641      0.8641
    -54.00      0.8424      0.8424
    -53.00      0.8205      0.8205
    -52.00      0.7984      0.7984
    -51.00      0.7762      0.7762
    -50.00      0.7539      0.7539
    -49.00      0.7314      0.7314
    -48.00      0.7088      0.7088
    -47.00      0.6860      0.6860
    -46.00      0.6632      0.6632
    -45.00      0.6403      0.6403
    -44.00      0.6175      0.6175
    -43.00      0.5948      0.5948
    -42.00      0.5721      0.5721
    -41.00      0.5495      0.5495
    -40.00      0.5270      0.5270
    -39.00      0.5046      0.5046
    -38.00      0.4823      0.4823
    -37.00      0.4601      0.4601
    -36.00      0.4382      0.4382
    -35.00      0.4178      0.4178
    -34.00      0.3976      0.3976
    -33.00      0.3747      0.3747
    -32.00      0.3463      0.3463
    -31.00      0.3138      0.3138
    -30.00      0.2793      0.2793
    -29.00      0.2423      0.2423
    -28.00      0.2075      0.2075
    -27.00      0.1923      0.1923
    -26.00      0.1790      0.1790
    -25.00      0.1657      0.1657
    -24.00      0.1525      0.1525
    -23.00      0.1413      0.1413
    -22.00      0.1302      0.1302
    -21.00      0.1192      0.1192
    -20.00      0.1085      0.1085
    -19.00      0.0995      0.0995
    -18.00      0.0907      0.0907
    -17.00      0.0824      0.0824
    -16.00      0.0741      0.0741
    -15.00      0.0663      0.0663
    -14.00      0.0586      0.0586
    -13.00      0.0514      0.0514
    -12.00      0.0444      0.0444
    -11.00      0.0384      0.0384
    -10.00      0.0325      0.0325
     -9.00      0.0283      0.0283
     -8.00      0.0243      0.0243
     -7.00      0.0216      0.0216
     -6.00      0.0190      0.0190
     -5.00      0.0174      0.0174
     -4.00      0.0158      0.0158
     -3.00      0.0152      0.0152
     -2.00      0.0145      0.0145
     -1.00      0.0142      0.0142
      0.00      0.0141      0.0141
      1.00      0.0141      0.0141
      2.00      0.0143      0.0143
      3.00      0.0145      0.0145
      4.00      0.0149      0.0149
      5.00      0.0153      0.0153
      6.00      0.0159      0.0159
      7.00      0.0166      0.0166
      8.00      0.0175      0.0175
      9.00      0.0187      0.0187
     10.00      0.0203      0.0203
     11.00      0.0229      0.0229
     12.00      0.0271      0.0271
     13.00      0.0338      0.0338
     14.00      0.0435      0.0435
     15.00      0.0538      0.0538
     16.00      0.0652      0.0652
     17.00      0.0800      0.0800
     18.00      0.0951      0.0951
     19.00      0.1134      0.1134
     20.00      0.1320      0.1320
     21.00      0.1504      0.1504
     22.00      0.1688      0.1688
     23.00      0.1871      0.1871
     24.00      0.2052      0.2052
     25.00      0.2238      0.2238
     26.00      0.2423      0.2423
     27.00      0.2609      0.2609
     28.00      0.2795      0.2795
     29.00      0.2980      0.2980
     30.00      0.3165      0.3165
     31.00      0.3354      0.3354
     32.00      0.3548      0.3548
     33.00      0.3747      0.3747
     34.00      0.3953      0.3953
     35.00      0.4166      0.4166
     36.00      0.4382      0.4382
     37.00      0.4601      0.4601
     38.00      0.4823      0.4823
     39.00      0.5046      0.5046
     40.00      0.5270      0.5270
     41.00      0.5495      0.5495
     42.00      0.5721      0.5721
     43.00      0.5948      0.5948
     44.00      0.6175      0.6175
     45.00      0.6403      0.6403
     46.00      0.6632      0.6632
     47.00      0.6860      0.6860
     48.00      0.7088      0.7088
     49.00      0.7314      0.7314
     50.00      0.7539      0.7539
     51.00      0.7762      0.7762
     52.00      0.7984      0.7984
     53.00      0.8205      0.8205
     54.00      0.8424      0.8424
     55.00      0.8641      0.8641
     56.00      0.8857      0.8857
     57.00      0.9069      0.9069
     58.00      0.9275      0.9275
     59.00      0.9477      0.9477
     60.00      0.9676      0.9676
     61.00      0.9871      0.9871
     62.00      1.0062      1.0062
     63.00      1.0249      1.0249
     64.00      1.0432      1.0432
     65.00      1.0612      1.0612
     66.00      1.0786      1.0786
     67.00      1.0956      1.0956
     68.00      1.1121      1.1121
     69.00      1.1278      1.1278
     70.00      1.1427      1.1427
     71.00      1.1569      1.1569
     72.00      1.1704      1.1704
     73.00      1.1835      1.1835
     74.00      1.1961      1.1961
     75.00      1.2080      1.2080
     76.00      1.2195      1.2195
     77.00      1.2304      1.2304
     78.00      1.2404      1.2404
     79.00      1.2494      1.2494
     80.00      1.2578      1.2578
     81.00      1.2651      1.2651
     82.00      1.2717      1.2717
     83.00      1.2776      1.2776
     84.00      1.2827      1.2827
     85.00      1.2873      1.2873
     86.00      1.2913      1.2913
     87.00      1.2944      1.2944
     88.00      1.2970      1.2970
     89.00      1.2991      1.2991
     90.00      1.3000      1.3000
     91.00      1.2991      1.2991
     92.00      1.2970      1.2970
     93.00      1.2944      1.2944
     94.00      1.2913      1.2913
     95.00      1.2873      1.2873
     96.00      1.2827      1.2827
     97.00      1.2776      1.2776
     98.00      1.2717      1.2717
     99.00      1.2651      1.2651
    100.00      1.2578      1.2578
    101.00      1.2494      1.2494
    102.00      1.2404      1.2404
    103.00      1.2304      1.2304
    104.00      1.2195      1.2195
    105.00      1.2080      1.2080
    106.00      1.1961      1.1961
    107.00      1.1835      1.1835
    108.00      1.1704      1.1704
    109.00      1.1569      1.1569
    110.00      1.1427      1.1427
    111.00      1.1278      1.1278
    112.00      1.1121      1.1121
    113.00      1.0956      1.0956
    114.00      1.0786      1.0786
    115.00      1.0612      1.0612
    116.00      1.0432      1.0432
    117.00      1.0249      1.0249
    118.00      1.0062      1.0062
    119.00      0.9871      0.9871
    120.00      0.9676      0.9676
    121.00      0.9477      0.9477
    122.00      0.9275      0.9275
    123.00      0.9069      0.9069
    124.00      0.8857      0.8857
    125.00      0.8641      0.8641
    126.00      0.8424      0.8424
    127.00      0.8205      0.8205
    128.00      0.7984      0.7984
    129.00      0.7762      0.7762
    130.00      0.7539      0.7539
    131.00      0.7314      0.7314
    132.00      0.7088      0.7088
    133.00      0.6860      0.6860
    134.00      0.6632      0.6632
    135.00      0.6403      0.6403
    136.00      0.6175      0.6175
    137.00      0.5948      0.5948
    138.00      0.5721      0.5721
    139.00      0.5495      0.5495
    140.00      0.5270      0.5270
    141.00      0.5046      0.5046
    142.00      0.4823      0.4823
    143.00      0.4601      0.4601
    144.00      0.4382      0.4382
    145.00      0.4167      0.4167
    146.00      0.3956      0.3956
    147.00      0.3747      0.3747
    148.00      0.3539      0.3539
    149.00      0.3334      0.3334
    150.00      0.3133      0.3133
    151.00      0.2937      0.2937
    152.00      0.2746      0.2746
    153.00      0.2560      0.2560
    154.00      0.2378      0.2378
    155.00      0.2201      0.2201
    156.00      0.2030      0.2030
    157.00      0.1863      0.1863
    158.00      0.1701      0.1701
    159.00      0.1545      0.1545
    160.00      0.1394      0.1394
    161.00      0.1249      0.1249
    162.00      0.1111      0.1111
    163.00      0.0975      0.0975
    164.00      0.0845      0.0845
    165.00      0.0738      0.0738
    166.00      0.0650      0.0650
    167.00      0.0575      0.0575
    168.00      0.0522      0.0522
    169.00      0.0490      0.0490
    170.00      0.0465      0.0465
    171.00      0.0444      0.0444
    172.00      0.0425      0.0425
    173.00      0.0409      0.0409
    174.00      0.0395      0.0395
    175.00      0.0382      0.0382
    176.00      0.0372      0.0372
    177.00      0.0364      0.0364
    178.00      0.0359      0.0359
    179.00      0.0354      0.0354
    180.00      0.0352      0.0352
                0.0000      1.0000
   -180.00      0.0000      0.0000
   -179.00      0.0400      0.0400
   -178.00      0.0800      0.0800
   -177.00      0.1200      0.1200
   -176.00      0.1600      0.1600
   -175.00      0.2000      0.2000
   -174.00      0.2400      0.2400
   -173.00      0.2841      0.2841
   -172.00      0.3282      0.3282
   -171.00      0.3600      0.3600
   -170.00      0.3803      0.3803
   -169.00      0.3960      0.3960
   -168.00      0.4044      0.4044
   -167.00      0.4073      0.4073
   -166.00      0.4091      0.4091
   -165.00      0.4109      0.4109
   -164.00      0.4130      0.4130
   -163.00      0.4150      0.4150
   -162.00      0.4175      0.4175
   -161.00      0.4207      0.4207
   -160.00      0.4247      0.4247
   -159.00      0.4295      0.4295
   -158.00      0.4360      0.4360
   -157.00      0.4442      0.4442
   -156.00      0.4523      0.4523
   -155.00      0.4601      0.4601
   -154.00      0.4678      0.4678
   -153.00      0.4752      0.4752
   -152.00      0.4834      0.4834
   -151.00      0.4913      0.4913
   -150.00      0.4949      0.4949
   -149.00      0.4928      0.4928
   -148.00      0.4882      0.4882
   -147.00      0.4833      0.4833
   -146.00      0.4787      0.4787
   -145.00      0.4737      0.4737
   -144.00      0.4688      0.4688
   -143.00      0.4640      0.4640
   -142.00      0.4592      0.4592
   -141.00      0.4549      0.4549
   -140.00      0.4511      0.4511
   -139.00      0.4477      0.4477
   -138.00      0.4446      0.4446
   -137.00      0.4419      0.4419
   -136.00      0.4394      0.4394
   -135.00      0.4369      0.4369
   -134.00      0.4342      0.4342
   -133.00      0.4314      0.4314
   -132.00      0.4292      0.4292
   -131.00      0.4276      0.4276
   -130.00      0.4263      0.4263
   -129.00      0.4253      0.4253
   -128.00      0.4245      0.4245
   -127.00      0.4238      0.4238
   -126.00      0.4234      0.4234
   -125.00      0.4232      0.4232
   -124.00      0.4230      0.4230
   -123.00      0.4229      0.4229
   -122.00      0.4227      0.4227
   -121.00      0.4226      0.4226
   -120.00      0.4226      0.4226
   -119.00      0.4227      0.4227
   -118.00      0.4229      0.4229
   -117.00      0.4232      0.4232
   -116.00      0.4235      0.4235
   -115.00      0.4239      0.4239
   -114.00      0.4242      0.4242
   -113.00      0.4247      0.4247
   -112.00      0.4251      0.4251
   -111.00      0.4253      0.4253
   -110.00      0.4252      0.4252
   -109.00      0.4251      0.4251
   -108.00      0.4249      0.4249
   -107.00      0.4248      0.4248
   -106.00      0.4246      0.4246
   -105.00      0.4243      0.4243
   -104.00      0.4241      0.4241
   -103.00      0.4238      0.4238
   -102.00      0.4234      0.4234
   -101.00      0.4228      0.4228
   -100.00      0.4220      0.4220
    -99.00      0.4211      0.4211
    -98.00      0.4200      0.4200
    -97.00      0.4187      0.4187
    -96.00      0.4173      0.4173
    -95.00      0.4159      0.4159
    -94.00      0.4144      0.4144
    -93.00      0.4129      0.4129
    -92.00      0.4116      0.4116
    -91.00      0.4103      0.4103
    -90.00      0.4086      0.4086
    -89.00      0.4060      0.4060
    -88.00      0.4027      0.4027
    -87.00      0.3993      0.3993
    -86.00      0.3962      0.3962
    -85.00      0.3931      0.3931
    -84.00      0.3900      0.3900
    -83.00      0.3869      0.3869
    -82.00      0.3837      0.3837
    -81.00      0.3803      0.3803
    -80.00      0.3768      0.3768
    -79.00      0.3732      0.3732
    -78.00      0.3694      0.3694
    -77.00      0.3656      0.3656
    -76.00      0.3616      0.3616
    -75.00      0.3575      0.3575