IEA-15-240-RWT_AeroDyn15_Polar_08; 2 361 2 361 2 361
                0.0000      1.0000
   -180.00      0.0000      0.0000
   -179.00      0.0427      0.0427
   -178.00      0.0855      0.0855
   -177.00      0.1284      0.1284
   -176.00      0.1716      0.1716
   -175.00      0.2149      0.2149
   -174.00      0.2582      0.2582
   -173.00      0.3015      0.3015
   -172.00      0.3448      0.3448
   -171.00      0.3880      0.3880
   -170.00      0.4312      0.4312
   -169.00      0.4744      0.4744
   -168.00      0.5176      0.5176
   -167.00      0.5607      0.5607
   -166.00      0.6038      0.6038
   -165.00      0.6469      0.6469
   -164.00      0.6914      0.6914
   -163.00      0.7359      0.7359
   -162.00      0.7763      0.7763
   -161.00      0.8143      0.8143
   -160.00      0.8492      0.8492
   -159.00      0.8732      0.8732
   -158.00      0.8862      0.8862
   -157.00      0.8957      0.8957
   -156.00      0.9051      0.9051
   -155.00      0.9156      0.9156
   -154.00      0.9261      0.9261
   -153.00      0.9364      0.9364
   -152.00      0.9487      0.9487
   -151.00      0.9609      0.9609
   -150.00      0.9664      0.9664
   -149.00      0.9605      0.9605
   -148.00      0.9468      0.9468
   -147.00      0.9312      0.9312
   -146.00      0.9139      0.9139
   -145.00      0.8935      0.8935
   -144.00      0.8734      0.8734
   -143.00      0.8543      0.8543
   -142.00      0.8355      0.8355
   -141.00      0.8174      0.8174
   -140.00      0.8003      0.8003
   -139.00      0.7838      0.7838
   -138.00      0.7677      0.7677
   -137.00      0.7519      0.7519
   -136.00      0.7366      0.7366
   -135.00      0.7212      0.7212
   -134.00      0.7058      0.7058
   -133.00      0.6904      0.6904
   -132.00      0.6751      0.6751
   -131.00      0.6597      0.6597
   -130.00      0.6443      0.6443
   -129.00      0.6290      0.6290
   -128.00      0.6136      0.6136
   -127.00      0.5982      0.5982
   -126.00      0.5828      0.5828
   -125.00      0.5674      0.5674
   -124.00      0.5519      0.5519
   -123.00      0.5365      0.5365
   -122.00      0.5211      0.5211
   -121.00      0.5056      0.5056
   -120.00      0.4899      0.4899
   -119.00      0.4738      0.4738
   -118.00      0.4575      0.4575
   -117.00      0.4411      0.4411
   -116.00      0.4248      0.4248
   -115.00      0.4085      0.4085
   -114.00      0.3921      0.3921
   -113.00      0.3758      0.3758
   -112.00      0.3594      0.3594
   -111.00      0.3430      0.3430
   -110.00      0.3264      0.3264
   -109.00      0.3097      0.3097
   -108.00      0.2930      0.2930
   -107.00      0.2763      0.2763
   -106.00      0.2595      0.2595
   -105.00      0.2428      0.2428
   -104.00      0.2260      0.2260
   -103.00      0.2092      0.2092
   -102.00      0.1925      0.1925
   -101.00      0.1759      0.1759
   -100.00      0.1593      0.1593
    -99.00      0.1430      0.1430
    -98.00      0.1269      0.1269
    -97.00      0.1109      0.1109
    -96.00      0.0950      0.0950
    -95.00      0.0791      0.0791
    -94.00      0.0632      0.0632
    -93.00      0.0473      0.0473
    -92.00      0.0315      0.0315
    -91.00      0.0158      0.0158
    -90.00     -0.0000     -0.0000
    -89.00     -0.0158     -0.0158
    -88.00     -0.0315     -0.0315
    -87.00     -0.0473     -0.0473
    -86.00     -0.0632     -0.0632
    -85.00     -0.0791     -0.0791
    -84.00     -0.0950     -0.0950
    -83.00     -0.1109     -0.1109
    -82.00     -0.1269     -0.1269
    -81.00     -0.1430     -0.1430
    -80.00     -0.1593     -0.1593
    -79.00     -0.1759     -0.1759
    -78.00     -0.1925     -0.1925
    -77.00     -0.2092     -0.2092
    -76.00     -0.2260     -0.2260
    -75.00     -0.2428     -0.2428
    -74.00     -0.2595     -0.2595
    -73.00     -0.2763     -0.2763
    -72.00     -0.2930     -0.2930
    -71.00     -0.3097     -0.3097
    -70.00     -0.3264     -0.3264
    -69.00     -0.3429     -0.3429
    -68.00     -0.3594     -0.3594
    -67.00     -0.3758     -0.3758
    -66.00     -0.3921     -0.3921
    -65.00     -0.4084     -0.4084
    -64.00     -0.4248     -0.4248
    -63.00     -0.4411     -0.4411
    -62.00     -0.4574     -0.4574
    -61.00     -0.4737     -0.4737
    -60.00     -0.4898     -0.4898
    -59.00     -0.5055     -0.5055
    -58.00     -0.5210     -0.5210
    -57.00     -0.5364     -0.5364
    -56.00     -0.5519     -0.5519
    -55.00     -0.5673     -0.5673
    -54.00     -0.5828     -0.5828
    -53.00     -0.5982     -0.5982
    -52.00     -0.6136     -0.6136
    -51.00     -0.6290     -0.6290
    -50.00     -0.6443     -0.6443
    -49.00     -0.6597     -0.6597
    -48.00     -0.6751     -0.6751
    -47.00     -0.6895     -0.6895
    -46.00     -0.7039     -0.7039
    -45.00     -0.7212     -0.7212
    -44.00     -0.7455     -0.7455
    -43.00     -0.7751     -0.7751
    -42.00     -0.8052     -0.8052
    -41.00     -0.8338     -0.8338
    -40.00     -0.8628     -0.8628
    -39.00     -0.8924     -0.8924
    -38.00     -0.9230     -0.9230
    -37.00     -0.9543     -0.9543
    -36.00     -0.9859     -0.9859
    -35.00     -1.0175     -1.0175
    -34.00     -1.0492     -1.0492
    -33.00     -1.0812     -1.0812
    -32.00     -1.1150     -1.1150
    -31.00     -1.1490     -1.1490
    -30.00     -1.1778     -1.1778
    -29.00     -1.1991     -1.1991
    -28.00     -1.2200     -1.2200
    -27.00     -1.2348     -1.2348
    -26.00     -1.2490     -1.2490
    -25.00     -1.2621     -1.2621
    -24.00     -1.2649     -1.2649
    -23.00     -1.2658     -1.2658
    -22.00     -1.2666     -1.2666
    -21.00     -1.2699     -1.2699
    -20.00     -1.2712     -1.2712
    -19.00     -1.2461     -1.2461
    -18.00     -1.2308     -1.2308
    -17.00     -1.1866     -1.1866
    -16.00     -1.1300     -1.1300
    -15.00     -1.0794     -1.0794
    -14.00     -1.0198     -1.0198
    -13.00     -0.9651     -0.9651
    -12.00     -0.9023     -0.9023
    -11.00     -0.8435     -0.8435
    -10.00     -0.7928     -0.7928
     -9.00     -0.6970     -0.6970
     -8.00     -0.5839     -0.5839
     -7.00     -0.4570     -0.4570
     -6.00     -0.3261     -0.3261
     -5.00     -0.1928     -0.1928
     -4.00     -0.0610     -0.0610
     -3.00      0.0668      0.0668
     -2.00      0.1884      0.1884
     -1.00      0.3111      0.3111
      0.00      0.4361      0.4361
      1.00      0.5640      0.5640
      2.00      0.6912      0.6912
      3.00      0.8169      0.8169
      4.00      0.9413      0.9413
      5.00      1.0638      1.0638
      6.00      1.1845      1.1845
      7.00      1.3032      1.3032
      8.00      1.4184      1.4184
      9.00      1.5299      1.5299
     10.00      1.6305      1.6305
     11.00      1.7191      1.7191
     12.00      1.7859      1.7859
     13.00      1.8504      1.8504
     14.00      1.9063      1.9063
     15.00      1.9607      1.9607
     16.00      2.0028      2.0028
     17.00      2.0170      2.0170
     18.00      1.9855      1.9855
     19.00      1.9485      1.9485
     20.00      1.9114      1.9114
     21.00      1.8751      1.8751
     22.00      1.8496      1.8496
     23.00      1.8352      1.8352
     24.00      1.8226      1.8226
     25.00      1.7967      1.7967
     26.00      1.7503      1.7503
     27.00      1.7026      1.7026
     28.00      1.6562      1.6562
     29.00      1.6150      1.6150
     30.00      1.5783      1.5783
     31.00      1.5437      1.5437
     32.00      1.5090      1.5090
     33.00      1.4729      1.4729
     34.00      1.4342      1.4342
     35.00      1.3940      1.3940
     36.00      1.3541      1.3541
     37.00      1.3149      1.3149
     38.00      1.2759      1.2759
     39.00      1.2380      1.2380
     40.00      1.2016      1.2016
     41.00      1.1662      1.1662
     42.00      1.1313      1.1313
     43.00      1.0951      1.0951
     44.00      1.0592      1.0592
     45.00      1.0286      1.0286
     46.00      1.0048      1.0048
     47.00      0.9843      0.9843
     48.00      0.9637      0.9637
     49.00      0.9421      0.9421
     50.00      0.9203      0.9203
     51.00      0.8985      0.8985
     52.00      0.8766      0.8766
     53.00      0.8546      0.8546
     54.00      0.8326      0.8326
     55.00      0.8105      0.8105
     56.00      0.7885      0.7885
     57.00      0.7664      0.7664
     58.00      0.7444      0.7444
     59.00      0.7223      0.7223
     60.00      0.6999      0.6999
     61.00      0.6769      0.6769
     62.00      0.6536      0.6536
     63.00      0.6302      0.6302
     64.00      0.6069      0.6069
     65.00      0.5836      0.5836
     66.00      0.5602      0.5602
     67.00      0.5368      0.5368
     68.00      0.5135      0.5135
     69.00      0.4900      0.4900
     70.00      0.4663      0.4663
     71.00      0.4425      0.4425
     72.00      0.4186      0.4186
     73.00      0.3947      0.3947
     74.00      0.3708      0.3708
     75.00      0.3468      0.3468
     76.00      0.3228      0.3228
     77.00      0.2989      0.2989
     78.00      0.2750      0.2750
     79.00      0.2513      0.2513
     80.00      0.2277      0.2277
     81.00      0.2043      0.2043
     82.00      0.1813      0.1813
     83.00      0.1585      0.1585
     84.00      0.1357      0.1357
     85.00      0.1130      0.1130
     86.00      0.0903      0.0903
     87.00      0.0676      0.0676
     88.00      0.0441      0.0441
     89.00      0.0207      0.0207
     90.00      0.0000      0.0000
     91.00     -0.0170     -0.0170
     92.00     -0.0321     -0.0321
     93.00     -0.0473     -0.0473
     94.00     -0.0632     -0.0632
     95.00     -0.0791     -0.0791
     96.00     -0.0950     -0.0950
     97.00     -0.1109     -0.1109
     98.00     -0.1269     -0.1269
     99.00     -0.1430     -0.1430
    100.00     -0.1593     -0.1593
    101.00     -0.1759     -0.1759
    102.00     -0.1925     -0.1925
    103.00     -0.2092     -0.2092
    104.00     -0.2260     -0.2260
    105.00     -0.2428     -0.2428
    106.00     -0.2595     -0.2595
    107.00     -0.2763     -0.2763
    108.00     -0.2930     -0.2930
    109.00     -0.3097     -0.3097
    110.00     -0.3264     -0.3264
    111.00     -0.3430     -0.3430
    112.00     -0.3594     -0.3594
    113.00     -0.3758     -0.3758
    114.00     -0.3921     -0.3921
    115.00     -0.4084     -0.4084
    116.00     -0.4248     -0.4248
    117.00     -0.4411     -0.4411
    118.00     -0.4574     -0.4574
    119.00     -0.4737     -0.4737
    120.00     -0.4898     -0.4898
    121.00     -0.5055     -0.5055
    122.00     -0.5210     -0.5210
    123.00     -0.5364     -0.5364
    124.00     -0.5519     -0.5519
    125.00     -0.5673     -0.5673
    126.00     -0.5828     -0.5828
    127.00     -0.5982     -0.5982
    128.00     -0.6136     -0.6136
    129.00     -0.6290     -0.6290
    130.00     -0.6443     -0.6443
    131.00     -0.6597     -0.6597
    132.00     -0.6751     -0.6751
    133.00     -0.6905     -0.6905
    134.00     -0.7058     -0.7058
    135.00     -0.7212     -0.7212
    136.00     -0.7366     -0.7366
    137.00     -0.7519     -0.7519
    138.00     -0.7677     -0.7677
    139.00     -0.7838     -0.7838
    140.00     -0.8003     -0.8003
    141.00     -0.8174     -0.8174
    142.00     -0.8355     -0.8355
    143.00     -0.8543     -0.8543
    144.00     -0.8734     -0.8734
    145.00     -0.8935     -0.8935
    146.00     -0.9139     -0.9139
    147.00     -0.9312     -0.9312
    148.00     -0.9468     -0.9468
    149.00     -0.9605     -0.9605
    150.00     -0.9664     -0.9664
    151.00     -0.9609     -0.9609
    152.00     -0.9487     -0.9487
    153.00     -0.9364     -0.9364
    154.00     -0.9261     -0.9261
    155.00     -0.9156     -0.9156
    156.00     -0.9051     -0.9051
    157.00     -0.8957     -0.8957
    158.00     -0.8862     -0.8862
    159.00     -0.8732     -0.8732
    160.00     -0.8492     -0.8492
    161.00     -0.8143     -0.8143
    162.00     -0.7763     -0.7763
    163.00     -0.7359     -0.7359
    164.00     -0.6914     -0.6914
    165.00     -0.6469     -0.6469
    166.00     -0.6038     -0.6038
    167.00     -0.5606     -0.5606
    168.00     -0.5175     -0.5175
    169.00     -0.4743     -0.4743
    170.00     -0.4312     -0.4312
    171.00     -0.3880     -0.3880
    172.00     -0.3447     -0.3447
    173.00     -0.3015     -0.3015
    174.00     -0.2582     -0.2582
    175.00     -0.2149     -0.2149
    176.00     -0.1716     -0.1716
    177.00     -0.1284     -0.1284
    178.00     -0.0855     -0.0855
    179.00     -0.0427     -0.0427
    180.00     -0.0000     -0.0000
                0.0000      1.0000
   -180.00      0.0738      0.0738
   -179.00      0.0738      0.0738
   -178.00      0.0739      0.0739
   -177.00      0.0740      0.0740
   -176.00      0.0742      0.0742
   -175.00      0.0744      0.0744
   -174.00      0.0746      0.0746
   -173.00      0.0749      0.0749
   -172.00      0.0751      0.0751
   -171.00      0.0756      0.0756
   -170.00      0.0772      0.0772
   -169.00      0.0803      0.0803
   -168.00      0.0839      0.0839
   -167.00      0.0880      0.0880
   -166.00      0.0930      0.0930
   -165.00      0.0983      0.0983
   -164.00      0.1039      0.1039
   -163.00      0.1099      0.1099
   -162.00      0.1168      0.1168
   -161.00      0.1246      0.1246
   -160.00      0.1337      0.1337
   -159.00      0.1445      0.1445
   -158.00      0.1590      0.1590
   -157.00      0.1766      0.1766
   -156.00      0.1942      0.1942
   -155.00      0.2108      0.2108
   -154.00      0.2275      0.2275
   -153.00      0.2443      0.2443
   -152.00      0.2607      0.2607
   -151.00      0.2772      0.2772
   -150.00      0.2948      0.2948
   -149.00      0.3143      0.3143
   -148.00      0.3352      0.3352
   -147.00      0.3564      0.3564
   -146.00      0.3775      0.3775
   -145.00      0.3989      0.3989
   -144.00      0.4202      0.4202
   -143.00      0.4412      0.4412
   -142.00      0.4621      0.4621
   -141.00      0.4833      0.4833
   -140.00      0.5048      0.5048
   -139.00      0.5267      0.5267
   -138.00      0.5487      0.5487
   -137.00      0.5708      0.5708
   -136.00      0.5931      0.5931
   -135.00      0.6154      0.6154
   -134.00      0.6376      0.6376
   -133.00      0.6599      0.6599
   -132.00      0.6820      0.6820
   -131.00      0.7040      0.7040
   -130.00      0.7259      0.7259
   -129.00      0.7475      0.7475
   -128.00      0.7689      0.7689
   -127.00      0.7900      0.7900
   -126.00      0.8111      0.8111
   -125.00      0.8322      0.8322
   -124.00      0.8533      0.8533
   -123.00      0.8743      0.8743
   -122.00      0.8955      0.8955
   -121.00      0.9165      0.9165
   -120.00      0.9366      0.9366
   -119.00      0.9550      0.9550
   -118.00      0.9726      0.9726
   -117.00      0.9901      0.9901
   -116.00      1.0077      1.0077
   -115.00      1.0253      1.0253
   -114.00      1.0427      1.0427
   -113.00      1.0604      1.0604
   -112.00      1.0779      1.0779
   -111.00      1.0943      1.0943
   -110.00      1.1090      1.1090
   -109.00      1.1228      1.1228
   -108.00      1.1360      1.1360
   -107.00      1.1485      1.1485
   -106.00      1.1605      1.1605
   -105.00      1.1723      1.1723
   -104.00      1.1844      1.1844
   -103.00      1.1963      1.1963
   -102.00      1.2074      1.2074
   -101.00      1.2177      1.2177
   -100.00      1.2274      1.2274
    -99.00      1.2354      1.2354
    -98.00      1.2415      1.2415
    -97.00      1.2467      1.2467
    -96.00      1.2517      1.2517
    -95.00      1.2567      1.2567
    -94.00      1.2616      1.2616
    -93.00      1.2663      1.2663
    -92.00      1.2717      1.2717
    -91.00      1.2769      1.2769
    -90.00      1.2793      1.2793
    -89.00      1.2769      1.2769
    -88.00      1.2717      1.2717
    -87.00      1.2663      1.2663
    -86.00      1.2616      1.2616
    -85.00      1.2567      1.2567
    -84.00      1.2517      1.2517
    -83.00      1.2467      1.2467
    -82.00      1.2415      1.2415
    -81.00      1.2354      1.2354
    -80.00      1.2274      1.2274
    -79.00      1.2177      1.2177
    -78.00      1.2074      1.2074
    -77.00      1.1963      1.1963
    -76.00      1.1844      1.1844
    -75.00      1.1723      1.1723
    -74.00      1.1605      1.1605
    -73.00      1.1485      1.1485
    -72.00      1.1360      1.1360
    -71.00      1.1228      1.1228
    -70.00      1.1090      1.1090
    -69.00      1.0943      1.0943
    -68.00      1.0779      1.0779
    -67.00      1.0604      1.0604
    -66.00      1.0427      1.0427
    -65.00      1.0253      1.0253
    -64.00      1.0077      1.0077
    -63.00      0.9901      0.9901
    -62.00      0.9726      0.9726
    -61.00      0.9550      0.9550
    -60.00      0.9365      0.9365
    -59.00      0.9165      0.9165
    -58.00      0.8955      0.8955
    -57.00      0.8743      0.8743
    -56.00      0.8533      0.8533
    -55.00      0.8322      0.8322
    -54.00      0.8111      0.8111
    -53.00      0.7900      0.7900
    -52.00      0.7689      0.7689
    -51.00      0.7475      0.7475
    -50.00      0.7259      0.7259
    -49.00      0.7040      0.7040
    -48.00      0.6820      0.6820
    -47.00      0.6599      0.6599
    -46.00      0.6376      0.6376
    -45.00      0.6154      0.6154
    -44.00      0.5931      0.5931
    -43.00      0.5708      0.5708
    -42.00      0.5487      0.5487
    -41.00      0.5267      0.5267
    -40.00      0.5048      0.5048
    -39.00      0.4833      0.4833
    -38.00      0.4621      0.4621
    -37.00      0.4412      0.4412
    -36.00      0.4202      0.4202
    -35.00      0.3991      0.3991
    -34.00      0.3779      0.3779
    -33.00      0.3564      0.3564
    -32.00      0.3339      0.3339
    -31.00      0.3110      0.3110
    -30.00      0.2898      0.2898
    -29.00      0.2715      0.2715
    -28.00      0.2540      0.2540
    -27.00      0.2392      0.2392
    -26.00      0.2251      0.2251
    -25.00      0.2110      0.2110
    -24.00      0.1969      0.1969
    -23.00      0.1828      0.1828
    -22.00      0.1688      0.1688
    -21.00      0.1548      0.1548
    -20.00      0.1412      0.1412
    -19.00      0.1339      0.1339
    -18.00      0.1263      0.1263
    -17.00      0.1190      0.1190
    -16.00      0.1127      0.1127
    -15.00      0.1060      0.1060
    -14.00      0.1004      0.1004
    -13.00      0.0946      0.0946
    -12.00      0.0897      0.0897
    -11.00      0.0849      0.0849
    -10.00      0.0799      0.0799
     -9.00      0.0766      0.0766
     -8.00      0.0739      0.0739
     -7.00      0.0722      0.0722
     -6.00      0.0708      0.0708
     -5.00      0.0698      0.0698
     -4.00      0.0691      0.0691
     -3.00      0.0687      0.0687
     -2.00      0.0685      0.0685
     -1.00      0.0685      0.0685
      0.00      0.0685      0.0685
      1.00      0.0686      0.0686
      2.00      0.0688      0.0688
      3.00      0.0691      0.0691
      4.00      0.0694      0.0694
      5.00      0.0699      0.0699
      6.00      0.0703      0.0703
      7.00      0.0709      0.0709
      8.00      0.0716      0.0716
      9.00      0.0724      0.0724
     10.00      0.0735      0.0735
     11.00      0.0751      0.0751
     12.00      0.0780      0.0780
     13.00      0.0818      0.0818
     14.00      0.0869      0.0869
     15.00      0.0928      0.0928
     16.00      0.1003      0.1003
     17.00      0.1106      0.1106
     18.00      0.1228      0.1228
     19.00      0.1362      0.1362
     20.00      0.1499      0.1499
     21.00      0.1639      0.1639
     22.00      0.1771      0.1771
     23.00      0.1888      0.1888
     24.00      0.1999      0.1999
     25.00      0.2147      0.2147
     26.00      0.2321      0.2321
     27.00      0.2496      0.2496
     28.00      0.2670      0.2670
     29.00      0.2845      0.2845
     30.00      0.3031      0.3031
     31.00      0.3229      0.3229
     32.00      0.3431      0.3431
     33.00      0.3635      0.3635
     34.00      0.3840      0.3840
     35.00      0.4047      0.4047
     36.00      0.4254      0.4254
     37.00      0.4459      0.4459
     38.00      0.4664      0.4664
     39.00      0.4872      0.4872
     40.00      0.5085      0.5085
     41.00      0.5301      0.5301
     42.00      0.5517      0.5517
     43.00      0.5735      0.5735
     44.00      0.5954      0.5954
     45.00      0.6172      0.6172
     46.00      0.6391      0.6391
     47.00      0.6610      0.6610
     48.00      0.6827      0.6827
     49.00      0.7044      0.7044
     50.00      0.7261      0.7261
     51.00      0.7475      0.7475
     52.00      0.7688      0.7688
     53.00      0.7900      0.7900
     54.00      0.8111      0.8111
     55.00      0.8322      0.8322
     56.00      0.8533      0.8533
     57.00      0.8743      0.8743
     58.00      0.8955      0.8955
     59.00      0.9165      0.9165
     60.00      0.9365      0.9365
     61.00      0.9550      0.9550
     62.00      0.9726      0.9726
     63.00      0.9901      0.9901
     64.00      1.0077      1.0077
     65.00      1.0253      1.0253
     66.00      1.0427      1.0427
     67.00      1.0604      1.0604
     68.00      1.0779      1.0779
     69.00      1.0943      1.0943
     70.00      1.1090      1.1090
     71.00      1.1228      1.1228
     72.00      1.1360      1.1360
     73.00      1.1485      1.1485
     74.00      1.1605      1.1605
     75.00      1.1723      1.1723
     76.00      1.1844      1.1844
     77.00      1.1963      1.1963
     78.00      1.2074      1.2074
     79.00      1.2177      1.2177
     80.00      1.2274      1.2274
     81.00      1.2354      1.2354
     82.00      1.2415      1.2415
     83.00      1.2467      1.2467
     84.00      1.2517      1.2517
     85.00      1.2567      1.2567
     86.00      1.2616      1.2616
     87.00      1.2663      1.2663
     88.00      1.2717      1.2717
     89.00      1.2769      1.2769
     90.00      1.2793      1.2793
     91.00      1.2769      1.2769
     92.00      1.2717      1.2717
     93.00      1.2663      1.2663
     94.00      1.2616      1.2616
     95.00      1.2567      1.2567
     96.00      1.2517      1.2517
     97.00      1.2467      1.2467
     98.00      1.2415      1.2415
     99.00      1.2354      1.2354
    100.00      1.2274      1.2274
    101.00      1.2177      1.2177
    102.00      1.2074      1.2074
    103.00      1.1963      1.1963
    104.00      1.1844      1.1844
    105.00      1.1723      1.1723
    106.00      1.1605      1.1605
    107.00      1.1485      1.1485
    108.00      1.1360      1.1360
    109.00      1.1228      1.1228
    110.00      1.1090      1.1090
    111.00      1.0943      1.0943
    112.00      1.0779      1.0779
    113.00      1.0604      1.0604
    114.00      1.0427      1.0427
    115.00      1.0253      1.0253
    116.00      1.0077      1.0077
    117.00      0.9901      0.9901
    118.00      0.9726      0.9726
    119.00      0.9550      0.9550
    120.00      0.9366      0.9366
    121.00      0.9165      0.9165
    122.00      0.8955      0.8955
    123.00      0.8743      0.8743
    124.00      0.8533      0.8533
    125.00      0.8322      0.8322
    126.00      0.8111      0.8111
    127.00      0.7900      0.7900
    128.00      0.7689      0.7689
    129.00      0.7475      0.7475
    130.00      0.7259      0.7259
    131.00      0.7040      0.7040
    132.00      0.6820      0.6820
    133.00      0.6599      0.6599
    134.00      0.6376      0.6376
    135.00      0.6154      0.6154
    136.00      0.5931      0.5931
    137.00      0.5708      0.5708
    138.00      0.5487      0.5487
    139.00      0.5267      0.5267
    140.00      0.5048      0.5048
    141.00      0.4833      0.4833
    142.00      0.4621      0.4621
    143.00      0.4412      0.4412
    144.00      0.4202      0.4202
    145.00      0.3989      0.3989
    146.00      0.3775      0.3775
    147.00      0.3564      0.3564
    148.00      0.3352      0.3352
    149.00      0.3143      0.3143
    150.00      0.2948      0.2948
    151.00      0.2772      0.2772
    152.00      0.2607      0.2607
    153.00      0.2443      0.2443
    154.00      0.2275      0.2275
    155.00      0.2108      0.2108
    156.00      0.1942      0.1942
    157.00      0.1766      0.1766
    158.00      0.1590      0.1590
    159.00      0.1445      0.1445
    160.00      0.1337      0.1337
    161.00      0.1246      0.1246
    162.00      0.1168      0.1168
    163.00      0.1099      0.1099
    164.00      0.1039      0.1039
    165.00      0.0983      0.0983
    166.00      0.0930      0.0930
    167.00      0.0880      0.0880
    168.00      0.0839      0.0839
    169.00      0.0803      0.0803
    170.00      0.0772      0.0772
    171.00      0.0756      0.0756
    172.00      0.0751      0.0751
    173.00      0.0749      0.0749
    174.00      0.0746      0.0746
    175.00      0.0744      0.0744
    176.00      0.0742      0.0742
    177.00      0.0740      0.0740
    178.00      0.0739      0.0739
    179.00      0.0738      0.0738
    180.00      0.0738      0.0738
                0.0000      1.0000
   -180.00      0.0000      0.0000
   -179.00      0.0329      0.0329
   -178.00      0.0659      0.0659
   -177.00      0.0990      0.0990
   -176.00      0.1322      0.1322
   -175.00      0.1655      0.1655
   -174.00      0.1988      0.1988
   -173.00      0.2362      0.2362
   -172.00      0.2735      0.2735
   -171.00      0.2987      0.2987
   -170.00      0.3129      0.3129
   -169.00      0.3235      0.3235
   -168.00      0.3277      0.3277
   -167.00      0.3265      0.3265
   -166.00      0.3238      0.3238
   -165.00      0.3212      0.3212
   -164.00      0.3189      0.3189
   -163.00      0.3166      0.3166
   -162.00      0.3144      0.3144
   -161.00      0.3124      0.3124
   -160.00      0.3106      0.3106
   -159.00      0.3092      0.3092
   -158.00      0.3083      0.3083
   -157.00      0.3076      0.3076
   -156.00      0.3069      0.3069
   -155.00      0.3060      0.3060
   -154.00      0.3052      0.3052
   -153.00      0.3043      0.3043
   -152.00      0.3035      0.3035
   -151.00      0.3026      0.3026
   -150.00      0.3012      0.3012
   -149.00      0.2972      0.2972
   -148.00      0.2904      0.2904
   -147.00      0.2836      0.2836
   -146.00      0.2776      0.2776
   -145.00      0.2716      0.2716
   -144.00      0.2655      0.2655
   -143.00      0.2590      0.2590
   -142.00      0.2525      0.2525
   -141.00      0.2473      0.2473
   -140.00      0.2436      0.2436
   -139.00      0.2406      0.2406
   -138.00      0.2383      0.2383
   -137.00      0.2367      0.2367
   -136.00      0.2353      0.2353
   -135.00      0.2340      0.2340
   -134.00      0.2325      0.2325
   -133.00      0.2309      0.2309
   -132.00      0.2297      0.2297
   -131.00      0.2288      0.2288
   -130.00      0.2280      0.2280
   -129.00      0.2277      0.2277
   -128.00      0.2281      0.2281
   -127.00      0.2288      0.2288
   -126.00      0.2296      0.2296
   -125.00      0.2302      0.2302
   -124.00      0.2309      0.2309
   -123.00      0.2316      0.2316
   -122.00      0.2322      0.2322
   -121.00      0.2328      0.2328
   -120.00      0.2336      0.2336
   -119.00      0.2347      0.2347
   -118.00      0.2360      0.2360
   -117.00      0.2373      0.2373
   -116.00      0.2385      0.2385
   -115.00      0.2397      0.2397
   -114.00      0.2410      0.2410
   -113.00      0.2422      0.2422
   -112.00      0.2435      0.2435
   -111.00      0.2446      0.2446
   -110.00      0.2456      0.2456
   -109.00      0.2465      0.2465
   -108.00      0.2474      0.2474
   -107.00      0.2482      0.2482
   -106.00      0.2490      0.2490
   -105.00      0.2497      0.2497
   -104.00      0.2506      0.2506
   -103.00      0.2514      0.2514
   -102.00      0.2520      0.2520
   -101.00      0.2525      0.2525
   -100.00      0.2530      0.2530
    -99.00      0.2532      0.2532
    -98.00      0.2530      0.2530
    -97.00      0.2526      0.2526
    -96.00      0.2521      0.2521
    -95.00      0.2518      0.2518
    -94.00      0.2514      0.2514
    -93.00      0.2510      0.2510
    -92.00      0.2507      0.2507
    -91.00      0.2504      0.2504
    -90.00      0.2499      0.2499
    -89.00      0.2483      0.2483
    -88.00      0.2453      0.2453
    -87.00      0.2424      0.2424
    -86.00      0.2398      0.2398
    -85.00      0.2373      0.2373
    -84.00      0.2348      0.2348
    -83.00      0.2323      0.2323
    -82.00      0.2298      0.2298
    -81.00      0.2271      0.2271
    -80.00      0.2242      0.2242
    -79.00      0.2210      0.2210
    -78.00      0.2177      0.2177
    -77.00      0.2144      0.2144
    -76.00      0.2109      0.2109
    -75.00      0.2074      0.2074