IEA-15-240-RWT_AeroDyn15_Polar_14; 2 361 2 361 2 361
                0.0000      1.0000
   -180.00      0.0000      0.0000
   -179.00      0.0309      0.0309
   -178.00      0.0617      0.0617
   -177.00      0.0926      0.0926
   -176.00      0.1235      0.1235
   -175.00      0.1543      0.1543
   -174.00      0.1852      0.1852
   -173.00      0.2161      0.2161
   -172.00      0.2470      0.2470
   -171.00      0.2778      0.2778
   -170.00      0.3087      0.3087
   -169.00      0.3396      0.3396
   -168.00      0.3704      0.3704
   -167.00      0.4013      0.4013
   -166.00      0.4322      0.4322
   -165.00      0.4630      0.4630
   -164.00      0.4939      0.4939
   -163.00      0.5248      0.5248
   -162.00      0.5556      0.5556
   -161.00      0.5865      0.5865
   -160.00      0.6174      0.6174
   -159.00      0.6483      0.6483
   -158.00      0.6793      0.6793
   -157.00      0.7103      0.7103
   -156.00      0.7413      0.7413
   -155.00      0.7723      0.7723
   -154.00      0.8034      0.8034
   -153.00      0.8346      0.8346
   -152.00      0.8686      0.8686
   -151.00      0.9027      0.9027
   -150.00      0.9289      0.9289
   -149.00      0.9488      0.9488
   -148.00      0.9651      0.9651
   -147.00      0.9718      0.9718
   -146.00      0.9604      0.9604
   -145.00      0.9354      0.9354
   -144.00      0.9113      0.9113
   -143.00      0.8930      0.8930
   -142.00      0.8754      0.8754
   -141.00      0.8581      0.8581
   -140.00      0.8410      0.8410
   -139.00      0.8242      0.8242
   -138.00      0.8075      0.8075
   -137.00      0.7911      0.7911
   -136.00      0.7749      0.7749
   -135.00      0.7589      0.7589
   -134.00      0.7429      0.7429
   -133.00      0.7272      0.7272
   -132.00      0.7114      0.7114
   -131.00      0.6956      0.6956
   -130.00      0.6798      0.6798
   -129.00      0.6639      0.6639
   -128.00      0.6480      0.6480
   -127.00      0.6320      0.6320
   -126.00      0.6160      0.6160
   -125.00      0.6000      0.6000
   -124.00      0.5838      0.5838
   -123.00      0.5676      0.5676
   -122.00      0.5511      0.5511
   -121.00      0.5346      0.5346
   -120.00      0.5179      0.5179
   -119.00      0.5011      0.5011
   -118.00      0.4842      0.4842
   -117.00      0.4673      0.4673
   -116.00      0.4502      0.4502
   -115.00      0.4331      0.4331
   -114.00      0.4158      0.4158
   -113.00      0.3985      0.3985
   -112.00      0.3810      0.3810
   -111.00      0.3635      0.3635
   -110.00      0.3459      0.3459
   -109.00      0.3282      0.3282
   -108.00      0.3105      0.3105
   -107.00      0.2928      0.2928
   -106.00      0.2751      0.2751
   -105.00      0.2573      0.2573
   -104.00      0.2396      0.2396
   -103.00      0.2218      0.2218
   -102.00      0.2041      0.2041
   -101.00      0.1864      0.1864
   -100.00      0.1688      0.1688
    -99.00      0.1513      0.1513
    -98.00      0.1340      0.1340
    -97.00      0.1167      0.1167
    -96.00      0.0996      0.0996
    -95.00      0.0827      0.0827
    -94.00      0.0658      0.0658
    -93.00      0.0491      0.0491
    -92.00      0.0326      0.0326
    -91.00      0.0163      0.0163
    -90.00     -0.0000     -0.0000
    -89.00     -0.0163     -0.0163
    -88.00     -0.0326     -0.0326
    -87.00     -0.0491     -0.0491
    -86.00     -0.0658     -0.0658
    -85.00     -0.0827     -0.0827
    -84.00     -0.0996     -0.0996
    -83.00     -0.1167     -0.1167
    -82.00     -0.1340     -0.1340
    -81.00     -0.1513     -0.1513
    -80.00     -0.1688     -0.1688
    -79.00     -0.1864     -0.1864
    -78.00     -0.2041     -0.2041
    -77.00     -0.2218     -0.2218
    -76.00     -0.2396     -0.2396
    -75.00     -0.2573     -0.2573
    -74.00     -0.2751     -0.2751
    -73.00     -0.2928     -0.2928
    -72.00     -0.3105     -0.3105
    -71.00     -0.3282     -0.3282
    -70.00     -0.3459     -0.3459
    -69.00     -0.3635     -0.3635
    -68.00     -0.3810     -0.3810
    -67.00     -0.3985     -0.3985
    -66.00     -0.4158     -0.4158
    -65.00     -0.4331     -0.4331
    -64.00     -0.4502     -0.4502
    -63.00     -0.4673     -0.4673
    -62.00     -0.4842     -0.4842
    -61.00     -0.5011     -0.5011
    -60.00     -0.5179     -0.5179
    -59.00     -0.5346     -0.5346
    -58.00     -0.5511     -0.5511
    -57.00     -0.5676     -0.5676
    -56.00     -0.5838     -0.5838
    -55.00     -0.6000     -0.6000
    -54.00     -0.6160     -0.6160
    -53.00     -0.6320     -0.6320
    -52.00     -0.6480     -0.6480
    -51.00     -0.6639     -0.6639
    -50.00     -0.6798     -0.6798
    -49.00     -0.6956     -0.6956
    -48.00     -0.7114     -0.7114
    -47.00     -0.7262     -0.7262
    -46.00     -0.7410     -0.7410
    -45.00     -0.7589     -0.7589
    -44.00     -0.7838     -0.7838
    -43.00     -0.8143     -0.8143
    -42.00     -0.8450     -0.8450
    -41.00     -0.8742     -0.8742
    -40.00     -0.9035     -0.9035
    -39.00     -0.9331     -0.9331
    -38.00     -0.9629     -0.9629
    -37.00     -0.9930     -0.9930
    -36.00     -1.0238     -1.0238
    -35.00     -1.0549     -1.0549
    -34.00     -1.0868     -1.0868
    -33.00     -1.1218     -1.1218
    -32.00     -1.1617     -1.1617
    -31.00     -1.2059     -1.2059
    -30.00     -1.2538     -1.2538
    -29.00     -1.3073     -1.3073
    -28.00     -1.3548     -1.3548
    -27.00     -1.3552     -1.3552
    -26.00     -1.3459     -1.3459
    -25.00     -1.3343     -1.3343
    -24.00     -1.3124     -1.3124
    -23.00     -1.2832     -1.2832
    -22.00     -1.2538     -1.2538
    -21.00     -1.2234     -1.2234
    -20.00     -1.1912     -1.1912
    -19.00     -1.1566     -1.1566
    -18.00     -1.1222     -1.1222
    -17.00     -1.0876     -1.0876
    -16.00     -1.0533     -1.0533
    -15.00     -1.0237     -1.0237
    -14.00     -0.9949     -0.9949
    -13.00     -0.9704     -0.9704
    -12.00     -0.9453     -0.9453
    -11.00     -0.9090     -0.9090
    -10.00     -0.8717     -0.8717
     -9.00     -0.7691     -0.7691
     -8.00     -0.6653     -0.6653
     -7.00     -0.5426     -0.5426
     -6.00     -0.4168     -0.4168
     -5.00     -0.2826     -0.2826
     -4.00     -0.1467     -0.1467
     -3.00      0.0004      0.0004
     -2.00      0.1482      0.1482
     -1.00      0.2968      0.2968
      0.00      0.4431      0.4431
      1.00      0.5875      0.5875
      2.00      0.7293      0.7293
      3.00      0.8686      0.8686
      4.00      1.0057      1.0057
      5.00      1.1398      1.1398
      6.00      1.2710      1.2710
      7.00      1.3990      1.3990
      8.00      1.5215      1.5215
      9.00      1.6379      1.6379
     10.00      1.7468      1.7468
     11.00      1.8389      1.8389
     12.00      1.9195      1.9195
     13.00      1.9803      1.9803
     14.00      2.0063      2.0063
     15.00      2.0238      2.0238
     16.00      2.0341      2.0341
     17.00      2.0163      2.0163
     18.00      1.9960      1.9960
     19.00      1.9461      1.9461
     20.00      1.8967      1.8967
     21.00      1.8632      1.8632
     22.00      1.8321      1.8321
     23.00      1.8010      1.8010
     24.00      1.7710      1.7710
     25.00      1.7578      1.7578
     26.00      1.7301      1.7301
     27.00      1.7015      1.7015
     28.00      1.6736      1.6736
     29.00      1.6482      1.6482
     30.00      1.6251      1.6251
     31.00      1.5996      1.5996
     32.00      1.5707      1.5707
     33.00      1.5384      1.5384
     34.00      1.4999      1.4999
     35.00      1.4565      1.4565
     36.00      1.4144      1.4144
     37.00      1.3757      1.3757
     38.00      1.3381      1.3381
     39.00      1.3009      1.3009
     40.00      1.2639      1.2639
     41.00      1.2274      1.2274
     42.00      1.1911      1.1911
     43.00      1.1534      1.1534
     44.00      1.1161      1.1161
     45.00      1.0841      1.0841
     46.00      1.0592      1.0592
     47.00      1.0377      1.0377
     48.00      1.0163      1.0163
     49.00      0.9937      0.9937
     50.00      0.9711      0.9711
     51.00      0.9484      0.9484
     52.00      0.9257      0.9257
     53.00      0.9029      0.9029
     54.00      0.8800      0.8800
     55.00      0.8571      0.8571
     56.00      0.8341      0.8341
     57.00      0.8108      0.8108
     58.00      0.7874      0.7874
     59.00      0.7637      0.7637
     60.00      0.7398      0.7398
     61.00      0.7159      0.7159
     62.00      0.6917      0.6917
     63.00      0.6675      0.6675
     64.00      0.6431      0.6431
     65.00      0.6186      0.6186
     66.00      0.5940      0.5940
     67.00      0.5692      0.5692
     68.00      0.5443      0.5443
     69.00      0.5193      0.5193
     70.00      0.4941      0.4941
     71.00      0.4689      0.4689
     72.00      0.4436      0.4436
     73.00      0.4183      0.4183
     74.00      0.3929      0.3929
     75.00      0.3676      0.3676
     76.00      0.3422      0.3422
     77.00      0.3169      0.3169
     78.00      0.2916      0.2916
     79.00      0.2664      0.2664
     80.00      0.2412      0.2412
     81.00      0.2162      0.2162
     82.00      0.1914      0.1914
     83.00      0.1668      0.1668
     84.00      0.1423      0.1423
     85.00      0.1181      0.1181
     86.00      0.0940      0.0940
     87.00      0.0702      0.0702
     88.00      0.0457      0.0457
     89.00      0.0215      0.0215
     90.00      0.0000      0.0000
     91.00     -0.0176     -0.0176
     92.00     -0.0333     -0.0333
     93.00     -0.0491     -0.0491
     94.00     -0.0658     -0.0658
     95.00     -0.0827     -0.0827
     96.00     -0.0996     -0.0996
     97.00     -0.1167     -0.1167
     98.00     -0.1340     -0.1340
     99.00     -0.1513     -0.1513
    100.00     -0.1688     -0.1688
    101.00     -0.1864     -0.1864
    102.00     -0.2041     -0.2041
    103.00     -0.2218     -0.2218
    104.00     -0.2396     -0.2396
    105.00     -0.2573     -0.2573
    106.00     -0.2751     -0.2751
    107.00     -0.2928     -0.2928
    108.00     -0.3105     -0.3105
    109.00     -0.3282     -0.3282
    110.00     -0.3459     -0.3459
    111.00     -0.3635     -0.3635
    112.00     -0.3810     -0.3810
    113.00     -0.3985     -0.3985
    114.00     -0.4158     -0.4158
    115.00     -0.4331     -0.4331
    116.00     -0.4502     -0.4502
    117.00     -0.4673     -0.4673
    118.00     -0.4842     -0.4842
    119.00     -0.5011     -0.5011
    120.00     -0.5179     -0.5179
    121.00     -0.5346     -0.5346
    122.00     -0.5511     -0.5511
    123.00     -0.5676     -0.5676
    124.00     -0.5838     -0.5838
    125.00     -0.6000     -0.6000
    126.00     -0.6160     -0.6160
    127.00     -0.6320     -0.6320
    128.00     -0.6480     -0.6480
    129.00     -0.6639     -0.6639
    130.00     -0.6798     -0.6798
    131.00     -0.6956     -0.6956
    132.00     -0.7114     -0.7114
    133.00     -0.7272     -0.7272
    134.00     -0.7429     -0.7429
    135.00     -0.7589     -0.7589
    136.00     -0.7749     -0.7749
    137.00     -0.7911     -0.7911
    138.00     -0.8075     -0.8075
    139.00     -0.8242     -0.8242
    140.00     -0.8410     -0.8410
    141.00     -0.8581     -0.8581
    142.00     -0.8754     -0.8754
    143.00     -0.8930     -0.8930
    144.00     -0.9113     -0.9113
    145.00     -0.9354     -0.9354
    146.00     -0.9604     -0.9604
    147.00     -0.9718     -0.9718
    148.00     -0.9651     -0.9651
    149.00     -0.9488     -0.9488
    150.00     -0.9289     -0.9289
    151.00     -0.9027     -0.9027
    152.00     -0.8686     -0.8686
    153.00     -0.8346     -0.8346
    154.00     -0.8034     -0.8034
    155.00     -0.7723     -0.7723
    156.00     -0.7413     -0.7413
    157.00     -0.7103     -0.7103
    158.00     -0.6793     -0.6793
    159.00     -0.6483     -0.6483
    160.00     -0.6174     -0.6174
    161.00     -0.5865     -0.5865
    162.00     -0.5556     -0.5556
    163.00     -0.5248     -0.5248
    164.00     -0.4939     -0.4939
    165.00     -0.4630     -0.4630
    166.00     -0.4322     -0.4322
    167.00     -0.4013     -0.4013
    168.00     -0.3704     -0.3704
    169.00     -0.3396     -0.3396
    170.00     -0.3087     -0.3087
    171.00     -0.2778     -0.2778
    172.00     -0.2470     -0.2470
    173.00     -0.2161     -0.2161
    174.00     -0.1852     -0.1852
    175.00     -0.1543     -0.1543
    176.00     -0.1235     -0.1235
    177.00     -0.0926     -0.0926
    178.00     -0.0617     -0.0617
    179.00     -0.0309     -0.0309
    180.00     -0.0000     -0.0000
                0.0000      1.0000
   -180.00      0.0340      0.0340
   -179.00      0.0342      0.0342
   -178.00      0.0346      0.0346
   -177.00      0.0351      0.0351
   -176.00      0.0359      0.0359
   -175.00      0.0370      0.0370
   -174.00      0.0382      0.0382
   -173.00      0.0396      0.0396
   -172.00      0.0413      0.0413
   -171.00      0.0432      0.0432
   -170.00      0.0453      0.0453
   -169.00      0.0478      0.0478
   -168.00      0.0511      0.0511
   -167.00      0.0564      0.0564
   -166.00      0.0639      0.0639
   -165.00      0.0727      0.0727
   -164.00      0.0835      0.0835
   -163.00      0.0964      0.0964
   -162.00      0.1100      0.1100
   -161.00      0.1237      0.1237
   -160.00      0.1382      0.1382
   -159.00      0.1533      0.1533
   -158.00      0.1689      0.1689
   -157.00      0.1851      0.1851
   -156.00      0.2018      0.2018
   -155.00      0.2190      0.2190
   -154.00      0.2367      0.2367
   -153.00      0.2549      0.2549
   -152.00      0.2735      0.2735
   -151.00      0.2926      0.2926
   -150.00      0.3122      0.3122
   -149.00      0.3323      0.3323
   -148.00      0.3528      0.3528
   -147.00      0.3736      0.3736
   -146.00      0.3945      0.3945
   -145.00      0.4157      0.4157
   -144.00      0.4372      0.4372
   -143.00      0.4591      0.4591
   -142.00      0.4813      0.4813
   -141.00      0.5036      0.5036
   -140.00      0.5260      0.5260
   -139.00      0.5486      0.5486
   -138.00      0.5712      0.5712
   -137.00      0.5939      0.5939
   -136.00      0.6166      0.6166
   -135.00      0.6395      0.6395
   -134.00      0.6623      0.6623
   -133.00      0.6852      0.6852
   -132.00      0.7079      0.7079
   -131.00      0.7306      0.7306
   -130.00      0.7531      0.7531
   -129.00      0.7755      0.7755
   -128.00      0.7977      0.7977
   -127.00      0.8198      0.8198
   -126.00      0.8416      0.8416
   -125.00      0.8634      0.8634
   -124.00      0.8850      0.8850
   -123.00      0.9062      0.9062
   -122.00      0.9268      0.9268
   -121.00      0.9471      0.9471
   -120.00      0.9670      0.9670
   -119.00      0.9865      0.9865
   -118.00      1.0056      1.0056
   -117.00      1.0243      1.0243
   -116.00      1.0427      1.0427
   -115.00      1.0607      1.0607
   -114.00      1.0781      1.0781
   -113.00      1.0951      1.0951
   -112.00      1.1117      1.1117
   -111.00      1.1274      1.1274
   -110.00      1.1423      1.1423
   -109.00      1.1564      1.1564
   -108.00      1.1700      1.1700
   -107.00      1.1831      1.1831
   -106.00      1.1957      1.1957
   -105.00      1.2077      1.2077
   -104.00      1.2192      1.2192
   -103.00      1.2301      1.2301
   -102.00      1.2401      1.2401
   -101.00      1.2492      1.2492
   -100.00      1.2575      1.2575
    -99.00      1.2649      1.2649
    -98.00      1.2715      1.2715
    -97.00      1.2775      1.2775
    -96.00      1.2826      1.2826
    -95.00      1.2872      1.2872
    -94.00      1.2912      1.2912
    -93.00      1.2943      1.2943
    -92.00      1.2969      1.2969
    -91.00      1.2991      1.2991
    -90.00      1.3000      1.3000
    -89.00      1.2991      1.2991
    -88.00      1.2969      1.2969
    -87.00      1.2943      1.2943
    -86.00      1.2912      1.2912
    -85.00      1.2872      1.2872
    -84.00      1.2826      1.2826
    -83.00      1.2775      1.2775
    -82.00      1.2715      1.2715
    -81.00      1.2649      1.2649
    -80.00      1.2575      1.2575
    -79.00      1.2492      1.2492
    -78.00      1.2401      1.2401
    -77.00      1.2301      1.2301
    -76.00      1.2192      1.2192
    -75.00      1.2077      1.2077
    -74.00      1.1957      1.1957
    -73.00      1.1831      1.1831
    -72.00      1.1700      1.1700
    -71.00      1.1564      1.1564
    -70.00      1.1423      1.1423
    -69.00      1.1274      1.1274
    -68.00      1.1117      1.1117
    -67.00      1.0951      1.0951
    -66.00      1.0781      1.0781
    -65.00      1.0607      1.0607
    -64.00      1.0427      1.0427
    -63.00      1.0243      1.0243
    -62.00      1.0056      1.0056
    -61.00      0.9865      0.9865
    -60.00      0.9670      0.9670
    -59.00      0.9471      0.9471
    -58.00      0.9268      0.9268
    -57.00      0.9062      0.9062
    -56.00      0.8850      0.8850
    -55.00      0.8634      0.8634
    -54.00      0.8416      0.8416
    -53.00      0.8198      0.8198
    -52.00      0.7977      0.7977
    -51.00      0.7755      0.7755
    -50.00      0.7531      0.7531
    -49.00      0.7306      0.7306
    -48.00      0.7079      0.7079
    -47.00      0.6852      0.6852
    -46.00      0.6623      0.6623
    -45.00      0.6395      0.6395
    -44.00      0.6166      0.6166
    -43.00      0.5939      0.5939
    -42.00      0.5712      0.5712
    -41.00      0.5486      0.5486
    -40.00      0.5260      0.5260
    -39.00      0.5036      0.5036
    -38.00      0.4813      0.4813
    -37.00      0.4591      0.4591
    -36.00      0.4372      0.4372
    -35.00      0.4167      0.4167
    -34.00      0.3965      0.3965
    -33.00      0.3736      0.3736
    -32.00      0.3455      0.3455
    -31.00      0.3132      0.3132
    -30.00      0.2791      0.2791
    -29.00      0.2424      0.2424
    -28.00      0.2078      0.2078
    -27.00      0.1923      0.1923
    -26.00      0.1786      0.1786
    -25.00      0.1648      0.1648
    -24.00      0.1512      0.1512
    -23.00      0.1400      0.1400
    -22.00      0.1290      0.1290
    -21.00      0.1181      0.1181
    -20.00      0.1076      0.1076
    -19.00      0.0984      0.0984
    -18.00      0.0895      0.0895
    -17.00      0.0811      0.0811
    -16.00      0.0728      0.0728
    -15.00      0.0650      0.0650
    -14.00      0.0573      0.0573
    -13.00      0.0501      0.0501
    -12.00      0.0431      0.0431
    -11.00      0.0372      0.0372
    -10.00      0.0313      0.0313
     -9.00      0.0274      0.0274
     -8.00      0.0236      0.0236
     -7.00      0.0209      0.0209
     -6.00      0.0185      0.0185
     -5.00      0.0169      0.0169
     -4.00      0.0154      0.0154
     -3.00      0.0148      0.0148
     -2.00      0.0142      0.0142
     -1.00      0.0139      0.0139
      0.00      0.0138      0.0138
      1.00      0.0139      0.0139
      2.00      0.0140      0.0140
      3.00      0.0142      0.0142
      4.00      0.0145      0.0145
      5.00      0.0150      0.0150
      6.00      0.0155      0.0155
      7.00      0.0162      0.0162
      8.00      0.0170      0.0170
      9.00      0.0181      0.0181
     10.00      0.0195      0.0195
     11.00      0.0218      0.0218
     12.00      0.0253      0.0253
     13.00      0.0308      0.0308
     14.00      0.0397      0.0397
     15.00      0.0498      0.0498
     16.00      0.0607      0.0607
     17.00      0.0740      0.0740
     18.00      0.0877      0.0877
     19.00      0.1053      0.1053
     20.00      0.1232      0.1232
     21.00      0.1419      0.1419
     22.00      0.1608      0.1608
     23.00      0.1795      0.1795
     24.00      0.1983      0.1983
     25.00      0.2177      0.2177
     26.00      0.2371      0.2371
     27.00      0.2565      0.2565
     28.00      0.2758      0.2758
     29.00      0.2950      0.2950
     30.00      0.3141      0.3141
     31.00      0.3336      0.3336
     32.00      0.3534      0.3534
     33.00      0.3736      0.3736
     34.00      0.3944      0.3944
     35.00      0.4156      0.4156
     36.00      0.4372      0.4372
     37.00      0.4591      0.4591
     38.00      0.4813      0.4813
     39.00      0.5036      0.5036
     40.00      0.5260      0.5260
     41.00      0.5486      0.5486
     42.00      0.5712      0.5712
     43.00      0.5939      0.5939
     44.00      0.6166      0.6166
     45.00      0.6395      0.6395
     46.00      0.6623      0.6623
     47.00      0.6852      0.6852
     48.00      0.7079      0.7079
     49.00      0.7306      0.7306
     50.00      0.7531      0.7531
     51.00      0.7755      0.7755
     52.00      0.7977      0.7977
     53.00      0.8198      0.8198
     54.00      0.8416      0.8416
     55.00      0.8634      0.8634
     56.00      0.8850      0.8850
     57.00      0.9062      0.9062
     58.00      0.9268      0.9268
     59.00      0.9471      0.9471
     60.00      0.9670      0.9670
     61.00      0.9865      0.9865
     62.00      1.0056      1.0056
     63.00      1.0243      1.0243
     64.00      1.0427      1.0427
     65.00      1.0607      1.0607
     66.00      1.0781      1.0781
     67.00      1.0951      1.0951
     68.00      1.1117      1.1117
     69.00      1.1274      1.1274
     70.00      1.1423      1.1423
     71.00      1.1564      1.1564
     72.00      1.1700      1.1700
     73.00      1.1831      1.1831
     74.00      1.1957      1.1957
     75.00      1.2077      1.2077
     76.00      1.2192      1.2192
     77.00      1.2301      1.2301
     78.00      1.2401      1.2401
     79.00      1.2492      1.2492
     80.00      1.2575      1.2575
     81.00      1.2649      1.2649
     82.00      1.2715      1.2715
     83.00      1.2775      1.2775
     84.00      1.2826      1.2826
     85.00      1.2872      1.2872
     86.00      1.2912      1.2912
     87.00      1.2943      1.2943
     88.00      1.2969      1.2969
     89.00      1.2991      1.2991
     90.00      1.3000      1.3000
     91.00      1.2991      1.2991
     92.00      1.2969      1.2969
     93.00      1.2943      1.2943
     94.00      1.2912      1.2912
     95.00      1.2872      1.2872
     96.00      1.2826      1.2826
     97.00      1.2775      1.2775
     98.00      1.2715      1.2715
     99.00      1.2649      1.2649
    100.00      1.2575      1.2575
    101.00      1.2492      1.2492
    102.00      1.2401      1.2401
    103.00      1.2301      1.2301
    104.00      1.2192      1.2192
    105.00      1.2077      1.2077
    106.00      1.1957      1.1957
    107.00      1.1831      1.1831
    108.00      1.1700      1.1700
    109.00      1.1564      1.1564
    110.00      1.1423      1.1423
    111.00      1.1274      1.1274
    112.00      1.1117      1.1117
    113.00      1.0951      1.0951
    114.00      1.0781      1.0781
    115.00      1.0607      1.0607
    116.00      1.0427      1.0427
    117.00      1.0243      1.0243
    118.00      1.0056      1.0056
    119.00      0.9865      0.9865
    120.00      0.9670      0.9670
    121.00      0.9471      0.9471
    122.00      0.9268      0.9268
    123.00      0.9062      0.9062
    124.00      0.8850      0.8850
    125.00      0.8634      0.8634
    126.00      0.8416      0.8416
    127.00      0.8198      0.8198
    128.00      0.7977      0.7977
    129.00      0.7755      0.7755
    130.00      0.7531      0.7531
    131.00      0.7306      0.7306
    132.00      0.7079      0.7079
    133.00      0.6852      0.6852
    134.00      0.6623      0.6623
    135.00      0.6395      0.6395
    136.00      0.6166      0.6166
    137.00      0.5939      0.5939
    138.00      0.5712      0.5712
    139.00      0.5486      0.5486
    140.00      0.5260      0.5260
    141.00      0.5036      0.5036
    142.00      0.4813      0.4813
    143.00      0.4591      0.4591
    144.00      0.4372      0.4372
    145.00      0.4157      0.4157
    146.00      0.3945      0.3945
    147.00      0.3736      0.3736
    148.00      0.3528      0.3528
    149.00      0.3323      0.3323
    150.00      0.3122      0.3122
    151.00      0.2926      0.2926
    152.00      0.2735      0.2735
    153.00      0.2549      0.2549
    154.00      0.2367      0.2367
    155.00      0.2190      0.2190
    156.00      0.2018      0.2018
    157.00      0.1851      0.1851
    158.00      0.1689      0.1689
    159.00      0.1533      0.1533
    160.00      0.1382      0.1382
    161.00      0.1237      0.1237
    162.00      0.1100      0.1100
    163.00      0.0964      0.0964
    164.00      0.0835      0.0835
    165.00      0.0727      0.0727
    166.00      0.0639      0.0639
    167.00      0.0564      0.0564
    168.00      0.0511      0.0511
    169.00      0.0478      0.0478
    170.00      0.0453      0.0453
    171.00      0.0432      0.0432
    172.00      0.0413      0.0413
    173.00      0.0396      0.0396
    174.00      0.0382      0.0382
    175.00      0.0370      0.0370
    176.00      0.0359      0.0359
    177.00      0.0351      0.0351
    178.00      0.0346      0.0346
    179.00      0.0342      0.0342
    180.00      0.0340      0.0340
                0.0000      1.0000
   -180.00      0.0000      0.0000
   -179.00      0.0400      0.0400
   -178.00      0.0800      0.0800
   -177.00      0.1200      0.1200
   -176.00      0.1600      0.1600
   -175.00      0.2000      0.2000
   -174.00      0.2400      0.2400
   -173.00      0.2841      0.2841
   -172.00      0.3282      0.3282
   -171.00      0.3600      0.3600
   -170.00      0.3803      0.3803
   -169.00      0.3960      0.3960
   -168.00      0.4044      0.4044
   -167.00      0.4073      0.4073
   -166.00      0.4091      0.4091
   -165.00      0.4109      0.4109
   -164.00      0.4129      0.4129
   -163.00      0.4150      0.4150
   -162.00      0.4174      0.4174
   -161.00      0.4206      0.4206
   -160.00      0.4246      0.4246
   -159.00      0.4294      0.4294
   -158.00      0.4359      0.4359
   -157.00      0.4440      0.4440
   -156.00      0.4521      0.4521
   -155.00      0.4598      0.4598
   -154.00      0.4675      0.4675
   -153.00      0.4749      0.4749
   -152.00      0.4831      0.4831
   -151.00      0.4910      0.4910
   -150.00      0.4945      0.4945
   -149.00      0.4925      0.4925
   -148.00      0.4880      0.4880
   -147.00      0.4832      0.4832
   -146.00      0.4786      0.4786
   -145.00      0.4738      0.4738
   -144.00      0.4689      0.4689
   -143.00      0.4642      0.4642
   -142.00      0.4596      0.4596
   -141.00      0.4554      0.4554
   -140.00      0.4517      0.4517
   -139.00      0.4483      0.4483
   -138.00      0.4453      0.4453
   -137.00      0.4426      0.4426
   -136.00      0.4402      0.4402
   -135.00      0.4378      0.4378
   -134.00      0.4351      0.4351
   -133.00      0.4324      0.4324
   -132.00      0.4303      0.4303
   -131.00      0.4288      0.4288
   -130.00      0.4275      0.4275
   -129.00      0.4266      0.4266
   -128.00      0.4258      0.4258
   -127.00      0.4251      0.4251
   -126.00      0.4247      0.4247
   -125.00      0.4245      0.4245
   -124.00      0.4244      0.4244
   -123.00      0.4242      0.4242
   -122.00      0.4241      0.4241
   -121.00      0.4240      0.4240
   -120.00      0.4240      0.4240
   -119.00      0.4241      0.4241
   -118.00      0.4243      0.4243
   -117.00      0.4246      0.4246
   -116.00      0.4249      0.4249
   -115.00      0.4252      0.4252
   -114.00      0.4256      0.4256
   -113.00      0.4260      0.4260
   -112.00      0.4264      0.4264
   -111.00      0.4266      0.4266
   -110.00      0.4265      0.4265
   -109.00      0.4264      0.4264
   -108.00      0.4262      0.4262
   -107.00      0.4260      0.4260
   -106.00      0.4258      0.4258
   -105.00      0.4256      0.4256
   -104.00      0.4253      0.4253
   -103.00      0.4250      0.4250
   -102.00      0.4246      0.4246
   -101.00      0.4240      0.4240
   -100.00      0.4232      0.4232
    -99.00      0.4223      0.4223
    -98.00      0.4211      0.4211
    -97.00      0.4198      0.4198
    -96.00      0.4184      0.4184
    -95.00      0.4170      0.4170
    -94.00      0.4155      0.4155
    -93.00      0.4140      0.4140
    -92.00      0.4126      0.4126
    -91.00      0.4113      0.4113
    -90.00      0.4096      0.4096
    -89.00      0.4070      0.4070
    -88.00      0.4036      0.4036
    -87.00      0.4002      0.4002
    -86.00      0.3971      0.3971
    -85.00      0.3940      0.3940
    -84.00      0.3909      0.3909
    -83.00      0.3877      0.3877
    -82.00      0.3845      0.3845
    -81.00      0.3811      0.3811
    -80.00      0.3776      0.3776
    -79.00      0.3739      0.3739
    -78.00      0.3701      0.3701
    -77.00      0.3662      0.3662
    -76.00      0.3622      0.3622
    -75.00      0.3581      0.3581