IEA-15-240-RWT_AeroDyn15_Polar_07; 2 361 2 361 2 361
                0.0000      1.0000
   -180.00      0.0000      0.0000
   -179.00      0.0436      0.0436
   -178.00      0.0875      0.0875
   -177.00      0.1314      0.1314
   -176.00      0.1756      0.1756
   -175.00      0.2200      0.2200
   -174.00      0.2644      0.2644
   -173.00      0.3087      0.3087
   -172.00      0.3531      0.3531
   -171.00      0.3973      0.3973
   -170.00      0.4416      0.4416
   -169.00      0.4858      0.4858
   -168.00      0.5300      0.5300
   -167.00      0.5741      0.5741
   -166.00      0.6183      0.6183
   -165.00      0.6624      0.6624
   -164.00      0.7081      0.7081
   -163.00      0.7538      0.7538
   -162.00      0.7949      0.7949
   -161.00      0.8336      0.8336
   -160.00      0.8689      0.8689
   -159.00      0.8915      0.8915
   -158.00      0.9020      0.9020
   -157.00      0.9092      0.9092
   -156.00      0.9163      0.9163
   -155.00      0.9246      0.9246
   -154.00      0.9329      0.9329
   -153.00      0.9412      0.9412
   -152.00      0.9513      0.9513
   -151.00      0.9614      0.9614
   -150.00      0.9660      0.9660
   -149.00      0.9528      0.9528
   -148.00      0.9243      0.9243
   -147.00      0.8975      0.8975
   -146.00      0.8783      0.8783
   -145.00      0.8604      0.8604
   -144.00      0.8424      0.8424
   -143.00      0.8235      0.8235
   -142.00      0.8044      0.8044
   -141.00      0.7862      0.7862
   -140.00      0.7694      0.7694
   -139.00      0.7535      0.7535
   -138.00      0.7379      0.7379
   -137.00      0.7229      0.7229
   -136.00      0.7082      0.7082
   -135.00      0.6935      0.6935
   -134.00      0.6786      0.6786
   -133.00      0.6638      0.6638
   -132.00      0.6489      0.6489
   -131.00      0.6340      0.6340
   -130.00      0.6191      0.6191
   -129.00      0.6043      0.6043
   -128.00      0.5894      0.5894
   -127.00      0.5745      0.5745
   -126.00      0.5597      0.5597
   -125.00      0.5448      0.5448
   -124.00      0.5300      0.5300
   -123.00      0.5152      0.5152
   -122.00      0.5005      0.5005
   -121.00      0.4858      0.4858
   -120.00      0.4708      0.4708
   -119.00      0.4553      0.4553
   -118.00      0.4394      0.4394
   -117.00      0.4236      0.4236
   -116.00      0.4078      0.4078
   -115.00      0.3921      0.3921
   -114.00      0.3764      0.3764
   -113.00      0.3608      0.3608
   -112.00      0.3451      0.3451
   -111.00      0.3294      0.3294
   -110.00      0.3135      0.3135
   -109.00      0.2976      0.2976
   -108.00      0.2816      0.2816
   -107.00      0.2655      0.2655
   -106.00      0.2494      0.2494
   -105.00      0.2333      0.2333
   -104.00      0.2172      0.2172
   -103.00      0.2010      0.2010
   -102.00      0.1850      0.1850
   -101.00      0.1691      0.1691
   -100.00      0.1532      0.1532
    -99.00      0.1376      0.1376
    -98.00      0.1222      0.1222
    -97.00      0.1071      0.1071
    -96.00      0.0919      0.0919
    -95.00      0.0766      0.0766
    -94.00      0.0614      0.0614
    -93.00      0.0461      0.0461
    -92.00      0.0307      0.0307
    -91.00      0.0154      0.0154
    -90.00     -0.0000     -0.0000
    -89.00     -0.0154     -0.0154
    -88.00     -0.0307     -0.0307
    -87.00     -0.0461     -0.0461
    -86.00     -0.0614     -0.0614
    -85.00     -0.0767     -0.0767
    -84.00     -0.0919     -0.0919
    -83.00     -0.1071     -0.1071
    -82.00     -0.1222     -0.1222
    -81.00     -0.1376     -0.1376
    -80.00     -0.1532     -0.1532
    -79.00     -0.1691     -0.1691
    -78.00     -0.1850     -0.1850
    -77.00     -0.2010     -0.2010
    -76.00     -0.2172     -0.2172
    -75.00     -0.2333     -0.2333
    -74.00     -0.2494     -0.2494
    -73.00     -0.2655     -0.2655
    -72.00     -0.2816     -0.2816
    -71.00     -0.2976     -0.2976
    -70.00     -0.3135     -0.3135
    -69.00     -0.3294     -0.3294
    -68.00     -0.3451     -0.3451
    -67.00     -0.3607     -0.3607
    -66.00     -0.3764     -0.3764
    -65.00     -0.3921     -0.3921
    -64.00     -0.4078     -0.4078
    -63.00     -0.4235     -0.4235
    -62.00     -0.4393     -0.4393
    -61.00     -0.4552     -0.4552
    -60.00     -0.4707     -0.4707
    -59.00     -0.4857     -0.4857
    -58.00     -0.5004     -0.5004
    -57.00     -0.5151     -0.5151
    -56.00     -0.5299     -0.5299
    -55.00     -0.5448     -0.5448
    -54.00     -0.5596     -0.5596
    -53.00     -0.5745     -0.5745
    -52.00     -0.5894     -0.5894
    -51.00     -0.6042     -0.6042
    -50.00     -0.6191     -0.6191
    -49.00     -0.6340     -0.6340
    -48.00     -0.6489     -0.6489
    -47.00     -0.6628     -0.6628
    -46.00     -0.6767     -0.6767
    -45.00     -0.6935     -0.6935
    -44.00     -0.7171     -0.7171
    -43.00     -0.7461     -0.7461
    -42.00     -0.7754     -0.7754
    -41.00     -0.8035     -0.8035
    -40.00     -0.8319     -0.8319
    -39.00     -0.8612     -0.8612
    -38.00     -0.8919     -0.8919
    -37.00     -0.9235     -0.9235
    -36.00     -0.9549     -0.9549
    -35.00     -0.9859     -0.9859
    -34.00     -1.0168     -1.0168
    -33.00     -1.0475     -1.0475
    -32.00     -1.0804     -1.0804
    -31.00     -1.1130     -1.1130
    -30.00     -1.1384     -1.1384
    -29.00     -1.1543     -1.1543
    -28.00     -1.1708     -1.1708
    -27.00     -1.1914     -1.1914
    -26.00     -1.2126     -1.2126
    -25.00     -1.2330     -1.2330
    -24.00     -1.2433     -1.2433
    -23.00     -1.2534     -1.2534
    -22.00     -1.2637     -1.2637
    -21.00     -1.2706     -1.2706
    -20.00     -1.2737     -1.2737
    -19.00     -1.2484     -1.2484
    -18.00     -1.2336     -1.2336
    -17.00     -1.1884     -1.1884
    -16.00     -1.1280     -1.1280
    -15.00     -1.0734     -1.0734
    -14.00     -1.0098     -1.0098
    -13.00     -0.9509     -0.9509
    -12.00     -0.8835     -0.8835
    -11.00     -0.8162     -0.8162
    -10.00     -0.7598     -0.7598
     -9.00     -0.6640     -0.6640
     -8.00     -0.5471     -0.5471
     -7.00     -0.4236     -0.4236
     -6.00     -0.2973     -0.2973
     -5.00     -0.1711     -0.1711
     -4.00     -0.0496     -0.0496
     -3.00      0.0682      0.0682
     -2.00      0.1854      0.1854
     -1.00      0.3004      0.3004
      0.00      0.4129      0.4129
      1.00      0.5302      0.5302
      2.00      0.6477      0.6477
      3.00      0.7643      0.7643
      4.00      0.8798      0.8798
      5.00      0.9942      0.9942
      6.00      1.1072      1.1072
      7.00      1.2188      1.2188
      8.00      1.3281      1.3281
      9.00      1.4348      1.4348
     10.00      1.5305      1.5305
     11.00      1.6168      1.6168
     12.00      1.6871      1.6871
     13.00      1.7611      1.7611
     14.00      1.8317      1.8317
     15.00      1.8970      1.8970
     16.00      1.9516      1.9516
     17.00      1.9971      1.9971
     18.00      1.9835      1.9835
     19.00      1.9498      1.9498
     20.00      1.9159      1.9159
     21.00      1.8796      1.8796
     22.00      1.8548      1.8548
     23.00      1.8424      1.8424
     24.00      1.8319      1.8319
     25.00      1.8038      1.8038
     26.00      1.7541      1.7541
     27.00      1.7031      1.7031
     28.00      1.6508      1.6508
     29.00      1.5935      1.5935
     30.00      1.5432      1.5432
     31.00      1.5008      1.5008
     32.00      1.4605      1.4605
     33.00      1.4212      1.4212
     34.00      1.3826      1.3826
     35.00      1.3448      1.3448
     36.00      1.3069      1.3069
     37.00      1.2679      1.2679
     38.00      1.2288      1.2288
     39.00      1.1911      1.1911
     40.00      1.1555      1.1555
     41.00      1.1212      1.1212
     42.00      1.0875      1.0875
     43.00      1.0523      1.0523
     44.00      1.0177      1.0177
     45.00      0.9881      0.9881
     46.00      0.9653      0.9653
     47.00      0.9457      0.9457
     48.00      0.9260      0.9260
     49.00      0.9052      0.9052
     50.00      0.8842      0.8842
     51.00      0.8632      0.8632
     52.00      0.8421      0.8421
     53.00      0.8208      0.8208
     54.00      0.7995      0.7995
     55.00      0.7783      0.7783
     56.00      0.7571      0.7571
     57.00      0.7360      0.7360
     58.00      0.7150      0.7150
     59.00      0.6940      0.6940
     60.00      0.6726      0.6726
     61.00      0.6504      0.6504
     62.00      0.6278      0.6278
     63.00      0.6051      0.6051
     64.00      0.5827      0.5827
     65.00      0.5602      0.5602
     66.00      0.5378      0.5378
     67.00      0.5154      0.5154
     68.00      0.4931      0.4931
     69.00      0.4706      0.4706
     70.00      0.4479      0.4479
     71.00      0.4251      0.4251
     72.00      0.4023      0.4023
     73.00      0.3793      0.3793
     74.00      0.3563      0.3563
     75.00      0.3333      0.3333
     76.00      0.3103      0.3103
     77.00      0.2872      0.2872
     78.00      0.2643      0.2643
     79.00      0.2416      0.2416
     80.00      0.2189      0.2189
     81.00      0.1966      0.1966
     82.00      0.1747      0.1747
     83.00      0.1530      0.1530
     84.00      0.1313      0.1313
     85.00      0.1095      0.1095
     86.00      0.0877      0.0877
     87.00      0.0658      0.0658
     88.00      0.0430      0.0430
     89.00      0.0202      0.0202
     90.00      0.0000      0.0000
     91.00     -0.0166     -0.0166
     92.00     -0.0313     -0.0313
     93.00     -0.0461     -0.0461
     94.00     -0.0614     -0.0614
     95.00     -0.0766     -0.0766
     96.00     -0.0919     -0.0919
     97.00     -0.1071     -0.1071
     98.00     -0.1222     -0.1222
     99.00     -0.1376     -0.1376
    100.00     -0.1532     -0.1532
    101.00     -0.1691     -0.1691
    102.00     -0.1850     -0.1850
    103.00     -0.2010     -0.2010
    104.00     -0.2172     -0.2172
    105.00     -0.2333     -0.2333
    106.00     -0.2494     -0.2494
    107.00     -0.2655     -0.2655
    108.00     -0.2816     -0.2816
    109.00     -0.2976     -0.2976
    110.00     -0.3135     -0.3135
    111.00     -0.3294     -0.3294
    112.00     -0.3451     -0.3451
    113.00     -0.3607     -0.3607
    114.00     -0.3764     -0.3764
    115.00     -0.3921     -0.3921
    116.00     -0.4078     -0.4078
    117.00     -0.4235     -0.4235
    118.00     -0.4393     -0.4393
    119.00     -0.4551     -0.4551
    120.00     -0.4707     -0.4707
    121.00     -0.4857     -0.4857
    122.00     -0.5004     -0.5004
    123.00     -0.5151     -0.5151
    124.00     -0.5299     -0.5299
    125.00     -0.5448     -0.5448
    126.00     -0.5596     -0.5596
    127.00     -0.5745     -0.5745
    128.00     -0.5894     -0.5894
    129.00     -0.6042     -0.6042
    130.00     -0.6191     -0.6191
    131.00     -0.6340     -0.6340
    132.00     -0.6489     -0.6489
    133.00     -0.6638     -0.6638
    134.00     -0.6786     -0.6786
    135.00     -0.6935     -0.6935
    136.00     -0.7082     -0.7082
    137.00     -0.7229     -0.7229
    138.00     -0.7379     -0.7379
    139.00     -0.7535     -0.7535
    140.00     -0.7694     -0.7694
    141.00     -0.7862     -0.7862
    142.00     -0.8044     -0.8044
    143.00     -0.8235     -0.8235
    144.00     -0.8424     -0.8424
    145.00     -0.8604     -0.8604
    146.00     -0.8783     -0.8783
    147.00     -0.8975     -0.8975
    148.00     -0.9243     -0.9243
    149.00     -0.9528     -0.9528
    150.00     -0.9660     -0.9660
    151.00     -0.9614     -0.9614
    152.00     -0.9513     -0.9513
    153.00     -0.9412     -0.9412
    154.00     -0.9329     -0.9329
    155.00     -0.9246     -0.9246
    156.00     -0.9163     -0.9163
    157.00     -0.9092     -0.9092
    158.00     -0.9020     -0.9020
    159.00     -0.8915     -0.8915
    160.00     -0.8689     -0.8689
    161.00     -0.8336     -0.8336
    162.00     -0.7949     -0.7949
    163.00     -0.7538     -0.7538
    164.00     -0.7081     -0.7081
    165.00     -0.6624     -0.6624
    166.00     -0.6182     -0.6182
    167.00     -0.5741     -0.5741
    168.00     -0.5299     -0.5299
    169.00     -0.4857     -0.4857
    170.00     -0.4415     -0.4415
    171.00     -0.3973     -0.3973
    172.00     -0.3530     -0.3530
    173.00     -0.3087     -0.3087
    174.00     -0.2643     -0.2643
    175.00     -0.2200     -0.2200
    176.00     -0.1756     -0.1756
    177.00     -0.1314     -0.1314
    178.00     -0.0874     -0.0874
    179.00     -0.0436     -0.0436
    180.00      0.0000      0.0000
                0.0000      1.0000
   -180.00      0.0915      0.0915
   -179.00      0.0914      0.0914
   -178.00      0.0914      0.0914
   -177.00      0.0913      0.0913
   -176.00      0.0913      0.0913
   -175.00      0.0912      0.0912
   -174.00      0.0910      0.0910
   -173.00      0.0908      0.0908
   -172.00      0.0906      0.0906
   -171.00      0.0905      0.0905
   -170.00      0.0920      0.0920
   -169.00      0.0953      0.0953
   -168.00      0.0990      0.0990
   -167.00      0.1027      0.1027
   -166.00      0.1069      0.1069
   -165.00      0.1107      0.1107
   -164.00      0.1136      0.1136
   -163.00      0.1163      0.1163
   -162.00      0.1198      0.1198
   -161.00      0.1256      0.1256
   -160.00      0.1337      0.1337
   -159.00      0.1437      0.1437
   -158.00      0.1576      0.1576
   -157.00      0.1755      0.1755
   -156.00      0.1934      0.1934
   -155.00      0.2099      0.2099
   -154.00      0.2265      0.2265
   -153.00      0.2430      0.2430
   -152.00      0.2592      0.2592
   -151.00      0.2754      0.2754
   -150.00      0.2927      0.2927
   -149.00      0.3122      0.3122
   -148.00      0.3330      0.3330
   -147.00      0.3537      0.3537
   -146.00      0.3734      0.3734
   -145.00      0.3930      0.3930
   -144.00      0.4126      0.4126
   -143.00      0.4324      0.4324
   -142.00      0.4524      0.4524
   -141.00      0.4726      0.4726
   -140.00      0.4934      0.4934
   -139.00      0.5146      0.5146
   -138.00      0.5360      0.5360
   -137.00      0.5575      0.5575
   -136.00      0.5792      0.5792
   -135.00      0.6009      0.6009
   -134.00      0.6226      0.6226
   -133.00      0.6444      0.6444
   -132.00      0.6660      0.6660
   -131.00      0.6874      0.6874
   -130.00      0.7088      0.7088
   -129.00      0.7300      0.7300
   -128.00      0.7507      0.7507
   -127.00      0.7712      0.7712
   -126.00      0.7917      0.7917
   -125.00      0.8124      0.8124
   -124.00      0.8331      0.8331
   -123.00      0.8538      0.8538
   -122.00      0.8751      0.8751
   -121.00      0.8964      0.8964
   -120.00      0.9164      0.9164
   -119.00      0.9342      0.9342
   -118.00      0.9509      0.9509
   -117.00      0.9676      0.9676
   -116.00      0.9848      0.9848
   -115.00      1.0021      1.0021
   -114.00      1.0194      1.0194
   -113.00      1.0373      1.0373
   -112.00      1.0553      1.0553
   -111.00      1.0718      1.0718
   -110.00      1.0865      1.0865
   -109.00      1.1000      1.1000
   -108.00      1.1128      1.1128
   -107.00      1.1250      1.1250
   -106.00      1.1367      1.1367
   -105.00      1.1484      1.1484
   -104.00      1.1607      1.1607
   -103.00      1.1732      1.1732
   -102.00      1.1848      1.1848
   -101.00      1.1959      1.1959
   -100.00      1.2063      1.2063
    -99.00      1.2146      1.2146
    -98.00      1.2204      1.2204
    -97.00      1.2252      1.2252
    -96.00      1.2300      1.2300
    -95.00      1.2354      1.2354
    -94.00      1.2408      1.2408
    -93.00      1.2464      1.2464
    -92.00      1.2534      1.2534
    -91.00      1.2606      1.2606
    -90.00      1.2638      1.2638
    -89.00      1.2606      1.2606
    -88.00      1.2534      1.2534
    -87.00      1.2464      1.2464
    -86.00      1.2408      1.2408
    -85.00      1.2354      1.2354
    -84.00      1.2300      1.2300
    -83.00      1.2252      1.2252
    -82.00      1.2204      1.2204
    -81.00      1.2146      1.2146
    -80.00      1.2063      1.2063
    -79.00      1.1959      1.1959
    -78.00      1.1848      1.1848
    -77.00      1.1732      1.1732
    -76.00      1.1607      1.1607
    -75.00      1.1484      1.1484
    -74.00      1.1367      1.1367
    -73.00      1.1251      1.1251
    -72.00      1.1129      1.1129
    -71.00      1.1000      1.1000
    -70.00      1.0865      1.0865
    -69.00      1.0718      1.0718
    -68.00      1.0553      1.0553
    -67.00      1.0373      1.0373
    -66.00      1.0194      1.0194
    -65.00      1.0021      1.0021
    -64.00      0.9848      0.9848
    -63.00      0.9676      0.9676
    -62.00      0.9509      0.9509
    -61.00      0.9342      0.9342
    -60.00      0.9163      0.9163
    -59.00      0.8964      0.8964
    -58.00      0.8751      0.8751
    -57.00      0.8538      0.8538
    -56.00      0.8331      0.8331
    -55.00      0.8124      0.8124
    -54.00      0.7917      0.7917
    -53.00      0.7712      0.7712
    -52.00      0.7507      0.7507
    -51.00      0.7300      0.7300
    -50.00      0.7088      0.7088
    -49.00      0.6875      0.6875
    -48.00      0.6660      0.6660
    -47.00      0.6444      0.6444
    -46.00      0.6226      0.6226
    -45.00      0.6009      0.6009
    -44.00      0.5792      0.5792
    -43.00      0.5575      0.5575
    -42.00      0.5360      0.5360
    -41.00      0.5146      0.5146
    -40.00      0.4934      0.4934
    -39.00      0.4726      0.4726
    -38.00      0.4524      0.4524
    -37.00      0.4324      0.4324
    -36.00      0.4126      0.4126
    -35.00      0.3929      0.3929
    -34.00      0.3733      0.3733
    -33.00      0.3537      0.3537
    -32.00      0.3328      0.3328
    -31.00      0.3119      0.3119
    -30.00      0.2945      0.2945
    -29.00      0.2818      0.2818
    -28.00      0.2687      0.2687
    -27.00      0.2549      0.2549
    -26.00      0.2410      0.2410
    -25.00      0.2270      0.2270
    -24.00      0.2129      0.2129
    -23.00      0.1987      0.1987
    -22.00      0.1844      0.1844
    -21.00      0.1701      0.1701
    -20.00      0.1559      0.1559
    -19.00      0.1491      0.1491
    -18.00      0.1420      0.1420
    -17.00      0.1351      0.1351
    -16.00      0.1296      0.1296
    -15.00      0.1234      0.1234
    -14.00      0.1185      0.1185
    -13.00      0.1133      0.1133
    -12.00      0.1091      0.1091
    -11.00      0.1050      0.1050
    -10.00      0.1005      0.1005
     -9.00      0.0979      0.0979
     -8.00      0.0959      0.0959
     -7.00      0.0947      0.0947
     -6.00      0.0938      0.0938
     -5.00      0.0932      0.0932
     -4.00      0.0928      0.0928
     -3.00      0.0927      0.0927
     -2.00      0.0927      0.0927
     -1.00      0.0928      0.0928
      0.00      0.0928      0.0928
      1.00      0.0930      0.0930
      2.00      0.0932      0.0932
      3.00      0.0935      0.0935
      4.00      0.0937      0.0937
      5.00      0.0941      0.0941
      6.00      0.0944      0.0944
      7.00      0.0949      0.0949
      8.00      0.0954      0.0954
      9.00      0.0960      0.0960
     10.00      0.0967      0.0967
     11.00      0.0975      0.0975
     12.00      0.0991      0.0991
     13.00      0.1010      0.1010
     14.00      0.1040      0.1040
     15.00      0.1082      0.1082
     16.00      0.1141      0.1141
     17.00      0.1221      0.1221
     18.00      0.1326      0.1326
     19.00      0.1439      0.1439
     20.00      0.1555      0.1555
     21.00      0.1678      0.1678
     22.00      0.1787      0.1787
     23.00      0.1886      0.1886
     24.00      0.1990      0.1990
     25.00      0.2134      0.2134
     26.00      0.2307      0.2307
     27.00      0.2482      0.2482
     28.00      0.2655      0.2655
     29.00      0.2828      0.2828
     30.00      0.3015      0.3015
     31.00      0.3211      0.3211
     32.00      0.3409      0.3409
     33.00      0.3607      0.3607
     34.00      0.3802      0.3802
     35.00      0.3996      0.3996
     36.00      0.4190      0.4190
     37.00      0.4385      0.4385
     38.00      0.4580      0.4580
     39.00      0.4778      0.4778
     40.00      0.4983      0.4983
     41.00      0.5192      0.5192
     42.00      0.5401      0.5401
     43.00      0.5612      0.5612
     44.00      0.5824      0.5824
     45.00      0.6036      0.6036
     46.00      0.6248      0.6248
     47.00      0.6459      0.6459
     48.00      0.6670      0.6670
     49.00      0.6881      0.6881
     50.00      0.7091      0.7091
     51.00      0.7300      0.7300
     52.00      0.7506      0.7506
     53.00      0.7712      0.7712
     54.00      0.7917      0.7917
     55.00      0.8124      0.8124
     56.00      0.8331      0.8331
     57.00      0.8538      0.8538
     58.00      0.8751      0.8751
     59.00      0.8964      0.8964
     60.00      0.9163      0.9163
     61.00      0.9342      0.9342
     62.00      0.9509      0.9509
     63.00      0.9676      0.9676
     64.00      0.9848      0.9848
     65.00      1.0021      1.0021
     66.00      1.0194      1.0194
     67.00      1.0373      1.0373
     68.00      1.0553      1.0553
     69.00      1.0718      1.0718
     70.00      1.0865      1.0865
     71.00      1.1000      1.1000
     72.00      1.1129      1.1129
     73.00      1.1251      1.1251
     74.00      1.1367      1.1367
     75.00      1.1484      1.1484
     76.00      1.1607      1.1607
     77.00      1.1732      1.1732
     78.00      1.1848      1.1848
     79.00      1.1959      1.1959
     80.00      1.2063      1.2063
     81.00      1.2146      1.2146
     82.00      1.2204      1.2204
     83.00      1.2252      1.2252
     84.00      1.2300      1.2300
     85.00      1.2354      1.2354
     86.00      1.2408      1.2408
     87.00      1.2464      1.2464
     88.00      1.2534      1.2534
     89.00      1.2606      1.2606
     90.00      1.2638      1.2638
     91.00      1.2606      1.2606
     92.00      1.2534      1.2534
     93.00      1.2464      1.2464
     94.00      1.2408      1.2408
     95.00      1.2354      1.2354
     96.00      1.2300      1.2300
     97.00      1.2252      1.2252
     98.00      1.2204      1.2204
     99.00      1.2146      1.2146
    100.00      1.2063      1.2063
    101.00      1.1959      1.1959
    102.00      1.1848      1.1848
    103.00      1.1732      1.1732
    104.00      1.1607      1.1607
    105.00      1.1484      1.1484
    106.00      1.1367      1.1367
    107.00      1.1250      1.1250
    108.00      1.1128      1.1128
    109.00      1.1000      1.1000
    110.00      1.0865      1.0865
    111.00      1.0718      1.0718
    112.00      1.0553      1.0553
    113.00      1.0373      1.0373
    114.00      1.0194      1.0194
    115.00      1.0021      1.0021
    116.00      0.9848      0.9848
    117.00      0.9676      0.9676
    118.00      0.9509      0.9509
    119.00      0.9342      0.9342
    120.00      0.9164      0.9164
    121.00      0.8964      0.8964
    122.00      0.8751      0.8751
    123.00      0.8538      0.8538
    124.00      0.8331      0.8331
    125.00      0.8124      0.8124
    126.00      0.7917      0.7917
    127.00      0.7712      0.7712
    128.00      0.7507      0.7507
    129.00      0.7300      0.7300
    130.00      0.7088      0.7088
    131.00      0.6874      0.6874
    132.00      0.6660      0.6660
    133.00      0.6444      0.6444
    134.00      0.6226      0.6226
    135.00      0.6009      0.6009
    136.00      0.5792      0.5792
    137.00      0.5575      0.5575
    138.00      0.5360      0.5360
    139.00      0.5146      0.5146
    140.00      0.4934      0.4934
    141.00      0.4726      0.4726
    142.00      0.4524      0.4524
    143.00      0.4324      0.4324
    144.00      0.4126      0.4126
    145.00      0.3930      0.3930
    146.00      0.3734      0.3734
    147.00      0.3537      0.3537
    148.00      0.3330      0.3330
    149.00      0.3122      0.3122
    150.00      0.2927      0.2927
    151.00      0.2754      0.2754
    152.00      0.2592      0.2592
    153.00      0.2430      0.2430
    154.00      0.2265      0.2265
    155.00      0.2099      0.2099
    156.00      0.1934      0.1934
    157.00      0.1755      0.1755
    158.00      0.1576      0.1576
    159.00      0.1437      0.1437
    160.00      0.1337      0.1337
    161.00      0.1256      0.1256
    162.00      0.1198      0.1198
    163.00      0.1163      0.1163
    164.00      0.1136      0.1136
    165.00      0.1107      0.1107
    166.00      0.1069      0.1069
    167.00      0.1027      0.1027
    168.00      0.0990      0.0990
    169.00      0.0953      0.0953
    170.00      0.0920      0.0920
    171.00      0.0905      0.0905
    172.00      0.0906      0.0906
    173.00      0.0908      0.0908
    174.00      0.0910      0.0910
    175.00      0.0912      0.0912
    176.00      0.0913      0.0913
    177.00      0.0913      0.0913
    178.00      0.0914      0.0914
    179.00      0.0914      0.0914
    180.00      0.0915      0.0915
                0.0000      1.0000
   -180.00     -0.0000     -0.0000
   -179.00      0.0298      0.0298
   -178.00      0.0596      0.0596
   -177.00      0.0897      0.0897
   -176.00      0.1198      0.1198
   -175.00      0.1501      0.1501
   -174.00      0.1804      0.1804
   -173.00      0.2146      0.2146
   -172.00      0.2488      0.2488
   -171.00      0.2712      0.2712
   -170.00      0.2830      0.2830
   -169.00      0.2916      0.2916
   -168.00      0.2950      0.2950
   -167.00      0.2932      0.2932
   -166.00      0.2893      0.2893
   -165.00      0.2854      0.2854
   -164.00      0.2822      0.2822
   -163.00      0.2790      0.2790
   -162.00      0.2760      0.2760
   -161.00      0.2730      0.2730
   -160.00      0.2701      0.2701
   -159.00      0.2674      0.2674
   -158.00      0.2650      0.2650
   -157.00      0.2627      0.2627
   -156.00      0.2605      0.2605
   -155.00      0.2583      0.2583
   -154.00      0.2562      0.2562
   -153.00      0.2540      0.2540
   -152.00      0.2521      0.2521
   -151.00      0.2502      0.2502
   -150.00      0.2477      0.2477
   -149.00      0.2432      0.2432
   -148.00      0.2370      0.2370
   -147.00      0.2308      0.2308
   -146.00      0.2252      0.2252
   -145.00      0.2196      0.2196
   -144.00      0.2140      0.2140
   -143.00      0.2080      0.2080
   -142.00      0.2020      0.2020
   -141.00      0.1973      0.1973
   -140.00      0.1941      0.1941
   -139.00      0.1915      0.1915
   -138.00      0.1896      0.1896
   -137.00      0.1883      0.1883
   -136.00      0.1873      0.1873
   -135.00      0.1863      0.1863
   -134.00      0.1851      0.1851
   -133.00      0.1840      0.1840
   -132.00      0.1831      0.1831
   -131.00      0.1824      0.1824
   -130.00      0.1818      0.1818
   -129.00      0.1816      0.1816
   -128.00      0.1820      0.1820
   -127.00      0.1829      0.1829
   -126.00      0.1838      0.1838
   -125.00      0.1846      0.1846
   -124.00      0.1853      0.1853
   -123.00      0.1860      0.1860
   -122.00      0.1867      0.1867
   -121.00      0.1874      0.1874
   -120.00      0.1883      0.1883
   -119.00      0.1894      0.1894
   -118.00      0.1907      0.1907
   -117.00      0.1920      0.1920
   -116.00      0.1932      0.1932
   -115.00      0.1944      0.1944
   -114.00      0.1957      0.1957
   -113.00      0.1970      0.1970
   -112.00      0.1982      0.1982
   -111.00      0.1994      0.1994
   -110.00      0.2004      0.2004
   -109.00      0.2014      0.2014
   -108.00      0.2023      0.2023
   -107.00      0.2032      0.2032
   -106.00      0.2040      0.2040
   -105.00      0.2048      0.2048
   -104.00      0.2057      0.2057
   -103.00      0.2066      0.2066
   -102.00      0.2073      0.2073
   -101.00      0.2080      0.2080
   -100.00      0.2085      0.2085
    -99.00      0.2088      0.2088
    -98.00      0.2087      0.2087
    -97.00      0.2084      0.2084
    -96.00      0.2082      0.2082
    -95.00      0.2080      0.2080
    -94.00      0.2078      0.2078
    -93.00      0.2076      0.2076
    -92.00      0.2074      0.2074
    -91.00      0.2073      0.2073
    -90.00      0.2070      0.2070
    -89.00      0.2056      0.2056
    -88.00      0.2029      0.2029
    -87.00      0.2002      0.2002
    -86.00      0.1979      0.1979
    -85.00      0.1957      0.1957
    -84.00      0.1934      0.1934
    -83.00      0.1912      0.1912
    -82.00      0.1890      0.1890
    -81.00      0.1866      0.1866
    -80.00      0.1839      0.1839
    -79.00      0.1811      0.1811
    -78.00      0.1781      0.1781
    -77.00      0.1751      0.1751
    -76.00      0.1720      0.1720
    -75.00      0.1688      0.1688