IEA-15-240-RWT_AeroDyn15_Polar_32; 2 361 2 361 2 361
                0.0000      1.0000
   -180.00      0.0000      0.0000
   -179.00      0.0252      0.0252
   -178.00      0.0504      0.0504
   -177.00      0.0756      0.0756
   -176.00      0.1008      0.1008
   -175.00      0.1261      0.1261
   -174.00      0.1513      0.1513
   -173.00      0.1765      0.1765
   -172.00      0.2017      0.2017
   -171.00      0.2269      0.2269
   -170.00      0.2521      0.2521
   -169.00      0.2773      0.2773
   -168.00      0.3025      0.3025
   -167.00      0.3278      0.3278
   -166.00      0.3530      0.3530
   -165.00      0.3782      0.3782
   -164.00      0.4034      0.4034
   -163.00      0.4286      0.4286
   -162.00      0.4538      0.4538
   -161.00      0.4790      0.4790
   -160.00      0.5042      0.5042
   -159.00      0.5294      0.5294
   -158.00      0.5547      0.5547
   -157.00      0.5799      0.5799
   -156.00      0.6051      0.6051
   -155.00      0.6303      0.6303
   -154.00      0.6555      0.6555
   -153.00      0.6807      0.6807
   -152.00      0.7075      0.7075
   -151.00      0.7343      0.7343
   -150.00      0.7563      0.7563
   -149.00      0.7754      0.7754
   -148.00      0.7918      0.7918
   -147.00      0.7987      0.7987
   -146.00      0.7942      0.7942
   -145.00      0.7844      0.7844
   -144.00      0.7746      0.7746
   -143.00      0.7668      0.7668
   -142.00      0.7590      0.7590
   -141.00      0.7511      0.7511
   -140.00      0.7430      0.7430
   -139.00      0.7349      0.7349
   -138.00      0.7266      0.7266
   -137.00      0.7182      0.7182
   -136.00      0.7096      0.7096
   -135.00      0.7008      0.7008
   -134.00      0.6917      0.6917
   -133.00      0.6823      0.6823
   -132.00      0.6725      0.6725
   -131.00      0.6624      0.6624
   -130.00      0.6518      0.6518
   -129.00      0.6409      0.6409
   -128.00      0.6297      0.6297
   -127.00      0.6180      0.6180
   -126.00      0.6061      0.6061
   -125.00      0.5939      0.5939
   -124.00      0.5814      0.5814
   -123.00      0.5685      0.5685
   -122.00      0.5550      0.5550
   -121.00      0.5410      0.5410
   -120.00      0.5268      0.5268
   -119.00      0.5123      0.5123
   -118.00      0.4974      0.4974
   -117.00      0.4823      0.4823
   -116.00      0.4670      0.4670
   -115.00      0.4513      0.4513
   -114.00      0.4354      0.4354
   -113.00      0.4192      0.4192
   -112.00      0.4027      0.4027
   -111.00      0.3858      0.3858
   -110.00      0.3687      0.3687
   -109.00      0.3512      0.3512
   -108.00      0.3335      0.3335
   -107.00      0.3157      0.3157
   -106.00      0.2978      0.2978
   -105.00      0.2797      0.2797
   -104.00      0.2615      0.2615
   -103.00      0.2431      0.2431
   -102.00      0.2246      0.2246
   -101.00      0.2060      0.2060
   -100.00      0.1872      0.1872
    -99.00      0.1684      0.1684
    -98.00      0.1496      0.1496
    -97.00      0.1308      0.1308
    -96.00      0.1120      0.1120
    -95.00      0.0932      0.0932
    -94.00      0.0744      0.0744
    -93.00      0.0557      0.0557
    -92.00      0.0371      0.0371
    -91.00      0.0186      0.0186
    -90.00     -0.0000     -0.0000
    -89.00     -0.0186     -0.0186
    -88.00     -0.0371     -0.0371
    -87.00     -0.0557     -0.0557
    -86.00     -0.0744     -0.0744
    -85.00     -0.0932     -0.0932
    -84.00     -0.1120     -0.1120
    -83.00     -0.1308     -0.1308
    -82.00     -0.1496     -0.1496
    -81.00     -0.1684     -0.1684
    -80.00     -0.1872     -0.1872
    -79.00     -0.2060     -0.2060
    -78.00     -0.2246     -0.2246
    -77.00     -0.2431     -0.2431
    -76.00     -0.2615     -0.2615
    -75.00     -0.2797     -0.2797
    -74.00     -0.2978     -0.2978
    -73.00     -0.3157     -0.3157
    -72.00     -0.3335     -0.3335
    -71.00     -0.3512     -0.3512
    -70.00     -0.3687     -0.3687
    -69.00     -0.3858     -0.3858
    -68.00     -0.4027     -0.4027
    -67.00     -0.4192     -0.4192
    -66.00     -0.4354     -0.4354
    -65.00     -0.4513     -0.4513
    -64.00     -0.4670     -0.4670
    -63.00     -0.4823     -0.4823
    -62.00     -0.4974     -0.4974
    -61.00     -0.5123     -0.5123
    -60.00     -0.5268     -0.5268
    -59.00     -0.5410     -0.5410
    -58.00     -0.5550     -0.5550
    -57.00     -0.5685     -0.5685
    -56.00     -0.5814     -0.5814
    -55.00     -0.5939     -0.5939
    -54.00     -0.6061     -0.6061
    -53.00     -0.6180     -0.6180
    -52.00     -0.6297     -0.6297
    -51.00     -0.6409     -0.6409
    -50.00     -0.6518     -0.6518
    -49.00     -0.6624     -0.6624
    -48.00     -0.6725     -0.6725
    -47.00     -0.6843     -0.6843
    -46.00     -0.6957     -0.6957
    -45.00     -0.7008     -0.7008
    -44.00     -0.6986     -0.6986
    -43.00     -0.6939     -0.6939
    -42.00     -0.6891     -0.6891
    -41.00     -0.6843     -0.6843
    -40.00     -0.6795     -0.6795
    -39.00     -0.6767     -0.6767
    -38.00     -0.6758     -0.6758
    -37.00     -0.6751     -0.6751
    -36.00     -0.6749     -0.6749
    -35.00     -0.6756     -0.6756
    -34.00     -0.6779     -0.6779
    -33.00     -0.6814     -0.6814
    -32.00     -0.7053     -0.7053
    -31.00     -0.7560     -0.7560
    -30.00     -0.8145     -0.8145
    -29.00     -0.8821     -0.8821
    -28.00     -0.9462     -0.9462
    -27.00     -0.9700     -0.9700
    -26.00     -0.9874     -0.9874
    -25.00     -1.0055     -1.0055
    -24.00     -1.0329     -1.0329
    -23.00     -1.0474     -1.0474
    -22.00     -1.0616     -1.0616
    -21.00     -1.0758     -1.0758
    -20.00     -1.0884     -1.0884
    -19.00     -1.0893     -1.0893
    -18.00     -1.0880     -1.0880
    -17.00     -1.0787     -1.0787
    -16.00     -1.0684     -1.0684
    -15.00     -1.0530     -1.0530
    -14.00     -1.0397     -1.0397
    -13.00     -1.0317     -1.0317
    -12.00     -1.0204     -1.0204
    -11.00     -0.9801     -0.9801
    -10.00     -0.9374     -0.9374
     -9.00     -0.8044     -0.8044
     -8.00     -0.6702     -0.6702
     -7.00     -0.5352     -0.5352
     -6.00     -0.4007     -0.4007
     -5.00     -0.2698     -0.2698
     -4.00     -0.1396     -0.1396
     -3.00     -0.0111     -0.0111
     -2.00      0.1172      0.1172
     -1.00      0.2445      0.2445
      0.00      0.3710      0.3710
      1.00      0.4973      0.4973
      2.00      0.6222      0.6222
      3.00      0.7460      0.7460
      4.00      0.8687      0.8687
      5.00      0.9895      0.9895
      6.00      1.1083      1.1083
      7.00      1.2243      1.2243
      8.00      1.3368      1.3368
      9.00      1.4441      1.4441
     10.00      1.5475      1.5475
     11.00      1.6430      1.6430
     12.00      1.7307      1.7307
     13.00      1.8068      1.8068
     14.00      1.8617      1.8617
     15.00      1.8959      1.8959
     16.00      1.8893      1.8893
     17.00      1.8167      1.8167
     18.00      1.7397      1.7397
     19.00      1.6436      1.6436
     20.00      1.5503      1.5503
     21.00      1.4858      1.4858
     22.00      1.4255      1.4255
     23.00      1.3651      1.3651
     24.00      1.3049      1.3049
     25.00      1.2582      1.2582
     26.00      1.2184      1.2184
     27.00      1.1799      1.1799
     28.00      1.1431      1.1431
     29.00      1.1080      1.1080
     30.00      1.0753      1.0753
     31.00      1.0473      1.0473
     32.00      1.0227      1.0227
     33.00      1.0082      1.0082
     34.00      1.0014      1.0014
     35.00      0.9967      0.9967
     36.00      0.9949      0.9949
     37.00      0.9955      0.9955
     38.00      0.9967      0.9967
     39.00      0.9979      0.9979
     40.00      0.9989      0.9989
     41.00      0.9998      0.9998
     42.00      1.0004      1.0004
     43.00      1.0008      1.0008
     44.00      1.0010      1.0010
     45.00      1.0011      1.0011
     46.00      0.9938      0.9938
     47.00      0.9776      0.9776
     48.00      0.9608      0.9608
     49.00      0.9463      0.9463
     50.00      0.9312      0.9312
     51.00      0.9156      0.9156
     52.00      0.8995      0.8995
     53.00      0.8829      0.8829
     54.00      0.8658      0.8658
     55.00      0.8484      0.8484
     56.00      0.8306      0.8306
     57.00      0.8121      0.8121
     58.00      0.7929      0.7929
     59.00      0.7729      0.7729
     60.00      0.7525      0.7525
     61.00      0.7318      0.7318
     62.00      0.7106      0.7106
     63.00      0.6890      0.6890
     64.00      0.6671      0.6671
     65.00      0.6447      0.6447
     66.00      0.6220      0.6220
     67.00      0.5988      0.5988
     68.00      0.5752      0.5752
     69.00      0.5512      0.5512
     70.00      0.5267      0.5267
     71.00      0.5017      0.5017
     72.00      0.4765      0.4765
     73.00      0.4510      0.4510
     74.00      0.4254      0.4254
     75.00      0.3996      0.3996
     76.00      0.3735      0.3735
     77.00      0.3473      0.3473
     78.00      0.3209      0.3209
     79.00      0.2943      0.2943
     80.00      0.2674      0.2674
     81.00      0.2406      0.2406
     82.00      0.2137      0.2137
     83.00      0.1868      0.1868
     84.00      0.1600      0.1600
     85.00      0.1331      0.1331
     86.00      0.1063      0.1063
     87.00      0.0796      0.0796
     88.00      0.0520      0.0520
     89.00      0.0244      0.0244
     90.00      0.0000      0.0000
     91.00     -0.0200     -0.0200
     92.00     -0.0379     -0.0379
     93.00     -0.0557     -0.0557
     94.00     -0.0744     -0.0744
     95.00     -0.0932     -0.0932
     96.00     -0.1120     -0.1120
     97.00     -0.1308     -0.1308
     98.00     -0.1496     -0.1496
     99.00     -0.1684     -0.1684
    100.00     -0.1872     -0.1872
    101.00     -0.2060     -0.2060
    102.00     -0.2246     -0.2246
    103.00     -0.2431     -0.2431
    104.00     -0.2615     -0.2615
    105.00     -0.2797     -0.2797
    106.00     -0.2978     -0.2978
    107.00     -0.3157     -0.3157
    108.00     -0.3335     -0.3335
    109.00     -0.3512     -0.3512
    110.00     -0.3687     -0.3687
    111.00     -0.3858     -0.3858
    112.00     -0.4027     -0.4027
    113.00     -0.4192     -0.4192
    114.00     -0.4354     -0.4354
    115.00     -0.4513     -0.4513
    116.00     -0.4670     -0.4670
    117.00     -0.4823     -0.4823
    118.00     -0.4974     -0.4974
    119.00     -0.5123     -0.5123
    120.00     -0.5268     -0.5268
    121.00     -0.5410     -0.5410
    122.00     -0.5550     -0.5550
    123.00     -0.5685     -0.5685
    124.00     -0.5814     -0.5814
    125.00     -0.5939     -0.5939
    126.00     -0.6061     -0.6061
    127.00     -0.6180     -0.6180
    128.00     -0.6297     -0.6297
    129.00     -0.6409     -0.6409
    130.00     -0.6518     -0.6518
    131.00     -0.6624     -0.6624
    132.00     -0.6725     -0.6725
    133.00     -0.6823     -0.6823
    134.00     -0.6917     -0.6917
    135.00     -0.7008     -0.7008
    136.00     -0.7096     -0.7096
    137.00     -0.7182     -0.7182
    138.00     -0.7266     -0.7266
    139.00     -0.7349     -0.7349
    140.00     -0.7430     -0.7430
    141.00     -0.7511     -0.7511
    142.00     -0.7590     -0.7590
    143.00     -0.7668     -0.7668
    144.00     -0.7746     -0.7746
    145.00     -0.7844     -0.7844
    146.00     -0.7942     -0.7942
    147.00     -0.7987     -0.7987
    148.00     -0.7918     -0.7918
    149.00     -0.7754     -0.7754
    150.00     -0.7563     -0.7563
    151.00     -0.7343     -0.7343
    152.00     -0.7075     -0.7075
    153.00     -0.6807     -0.6807
    154.00     -0.6555     -0.6555
    155.00     -0.6303     -0.6303
    156.00     -0.6051     -0.6051
    157.00     -0.5799     -0.5799
    158.00     -0.5547     -0.5547
    159.00     -0.5294     -0.5294
    160.00     -0.5042     -0.5042
    161.00     -0.4790     -0.4790
    162.00     -0.4538     -0.4538
    163.00     -0.4286     -0.4286
    164.00     -0.4034     -0.4034
    165.00     -0.3782     -0.3782
    166.00     -0.3530     -0.3530
    167.00     -0.3278     -0.3278
    168.00     -0.3025     -0.3025
    169.00     -0.2773     -0.2773
    170.00     -0.2521     -0.2521
    171.00     -0.2269     -0.2269
    172.00     -0.2017     -0.2017
    173.00     -0.1765     -0.1765
    174.00     -0.1513     -0.1513
    175.00     -0.1261     -0.1261
    176.00     -0.1008     -0.1008
    177.00     -0.0756     -0.0756
    178.00     -0.0504     -0.0504
    179.00     -0.0252     -0.0252
    180.00      0.0000      0.0000
                0.0000      1.0000
   -180.00      0.0121      0.0121
   -179.00      0.0123      0.0123
   -178.00      0.0128      0.0128
   -177.00      0.0134      0.0134
   -176.00      0.0143      0.0143
   -175.00      0.0156      0.0156
   -174.00      0.0171      0.0171
   -173.00      0.0187      0.0187
   -172.00      0.0206      0.0206
   -171.00      0.0230      0.0230
   -170.00      0.0262      0.0262
   -169.00      0.0304      0.0304
   -168.00      0.0360      0.0360
   -167.00      0.0451      0.0451
   -166.00      0.0579      0.0579
   -165.00      0.0714      0.0714
   -164.00      0.0849      0.0849
   -163.00      0.0993      0.0993
   -162.00      0.1145      0.1145
   -161.00      0.1306      0.1306
   -160.00      0.1475      0.1475
   -159.00      0.1651      0.1651
   -158.00      0.1834      0.1834
   -157.00      0.2024      0.2024
   -156.00      0.2219      0.2219
   -155.00      0.2420      0.2420
   -154.00      0.2627      0.2627
   -153.00      0.2839      0.2839
   -152.00      0.3057      0.3057
   -151.00      0.3280      0.3280
   -150.00      0.3508      0.3508
   -149.00      0.3742      0.3742
   -148.00      0.3981      0.3981
   -147.00      0.4223      0.4223
   -146.00      0.4467      0.4467
   -145.00      0.4713      0.4713
   -144.00      0.4963      0.4963
   -143.00      0.5218      0.5218
   -142.00      0.5476      0.5476
   -141.00      0.5736      0.5736
   -140.00      0.5996      0.5996
   -139.00      0.6258      0.6258
   -138.00      0.6521      0.6521
   -137.00      0.6785      0.6785
   -136.00      0.7050      0.7050
   -135.00      0.7314      0.7314
   -134.00      0.7580      0.7580
   -133.00      0.7846      0.7846
   -132.00      0.8110      0.8110
   -131.00      0.8373      0.8373
   -130.00      0.8634      0.8634
   -129.00      0.8894      0.8894
   -128.00      0.9152      0.9152
   -127.00      0.9408      0.9408
   -126.00      0.9662      0.9662
   -125.00      0.9915      0.9915
   -124.00      1.0166      1.0166
   -123.00      1.0411      1.0411
   -122.00      1.0651      1.0651
   -121.00      1.0887      1.0887
   -120.00      1.1117      1.1117
   -119.00      1.1344      1.1344
   -118.00      1.1566      1.1566
   -117.00      1.1783      1.1783
   -116.00      1.1996      1.1996
   -115.00      1.2205      1.2205
   -114.00      1.2408      1.2408
   -113.00      1.2606      1.2606
   -112.00      1.2798      1.2798
   -111.00      1.2981      1.2981
   -110.00      1.3154      1.3154
   -109.00      1.3319      1.3319
   -108.00      1.3477      1.3477
   -107.00      1.3629      1.3629
   -106.00      1.3776      1.3776
   -105.00      1.3915      1.3915
   -104.00      1.4049      1.4049
   -103.00      1.4177      1.4177
   -102.00      1.4294      1.4294
   -101.00      1.4400      1.4400
   -100.00      1.4497      1.4497
    -99.00      1.4584      1.4584
    -98.00      1.4661      1.4661
    -97.00      1.4731      1.4731
    -96.00      1.4792      1.4792
    -95.00      1.4845      1.4845
    -94.00      1.4893      1.4893
    -93.00      1.4931      1.4931
    -92.00      1.4962      1.4962
    -91.00      1.4989      1.4989
    -90.00      1.5000      1.5000
    -89.00      1.4989      1.4989
    -88.00      1.4962      1.4962
    -87.00      1.4931      1.4931
    -86.00      1.4893      1.4893
    -85.00      1.4845      1.4845
    -84.00      1.4792      1.4792
    -83.00      1.4731      1.4731
    -82.00      1.4661      1.4661
    -81.00      1.4584      1.4584
    -80.00      1.4497      1.4497
    -79.00      1.4400      1.4400
    -78.00      1.4294      1.4294
    -77.00      1.4177      1.4177
    -76.00      1.4049      1.4049
    -75.00      1.3915      1.3915
    -74.00      1.3776      1.3776
    -73.00      1.3629      1.3629
    -72.00      1.3477      1.3477
    -71.00      1.3319      1.3319
    -70.00      1.3154      1.3154
    -69.00      1.2981      1.2981
    -68.00      1.2798      1.2798
    -67.00      1.2606      1.2606
    -66.00      1.2408      1.2408
    -65.00      1.2205      1.2205
    -64.00      1.1996      1.1996
    -63.00      1.1783      1.1783
    -62.00      1.1566      1.1566
    -61.00      1.1344      1.1344
    -60.00      1.1117      1.1117
    -59.00      1.0887      1.0887
    -58.00      1.0651      1.0651
    -57.00      1.0411      1.0411
    -56.00      1.0166      1.0166
    -55.00      0.9915      0.9915
    -54.00      0.9662      0.9662
    -53.00      0.9408      0.9408
    -52.00      0.9152      0.9152
    -51.00      0.8894      0.8894
    -50.00      0.8634      0.8634
    -49.00      0.8373      0.8373
    -48.00      0.8110      0.8110
    -47.00      0.7846      0.7846
    -46.00      0.7580      0.7580
    -45.00      0.7314      0.7314
    -44.00      0.7050      0.7050
    -43.00      0.6785      0.6785
    -42.00      0.6521      0.6521
    -41.00      0.6258      0.6258
    -40.00      0.5996      0.5996
    -39.00      0.5736      0.5736
    -38.00      0.5476      0.5476
    -37.00      0.5218      0.5218
    -36.00      0.4963      0.4963
    -35.00      0.4725      0.4725
    -34.00      0.4490      0.4490
    -33.00      0.4223      0.4223
    -32.00      0.3895      0.3895
    -31.00      0.3519      0.3519
    -30.00      0.3117      0.3117
    -29.00      0.2684      0.2684
    -28.00      0.2273      0.2273
    -27.00      0.2061      0.2061
    -26.00      0.1877      0.1877
    -25.00      0.1694      0.1694
    -24.00      0.1504      0.1504
    -23.00      0.1365      0.1365
    -22.00      0.1228      0.1228
    -21.00      0.1091      0.1091
    -20.00      0.0958      0.0958
    -19.00      0.0856      0.0856
    -18.00      0.0761      0.0761
    -17.00      0.0679      0.0679
    -16.00      0.0600      0.0600
    -15.00      0.0530      0.0530
    -14.00      0.0462      0.0462
    -13.00      0.0395      0.0395
    -12.00      0.0328      0.0328
    -11.00      0.0264      0.0264
    -10.00      0.0201      0.0201
     -9.00      0.0157      0.0157
     -8.00      0.0118      0.0118
     -7.00      0.0103      0.0103
     -6.00      0.0092      0.0092
     -5.00      0.0086      0.0086
     -4.00      0.0082      0.0082
     -3.00      0.0080      0.0080
     -2.00      0.0079      0.0079
     -1.00      0.0079      0.0079
      0.00      0.0079      0.0079
      1.00      0.0080      0.0080
      2.00      0.0082      0.0082
      3.00      0.0085      0.0085
      4.00      0.0088      0.0088
      5.00      0.0093      0.0093
      6.00      0.0098      0.0098
      7.00      0.0106      0.0106
      8.00      0.0115      0.0115
      9.00      0.0126      0.0126
     10.00      0.0139      0.0139
     11.00      0.0154      0.0154
     12.00      0.0173      0.0173
     13.00      0.0196      0.0196
     14.00      0.0231      0.0231
     15.00      0.0282      0.0282
     16.00      0.0365      0.0365
     17.00      0.0509      0.0509
     18.00      0.0658      0.0658
     19.00      0.0851      0.0851
     20.00      0.1049      0.1049
     21.00      0.1263      0.1263
     22.00      0.1480      0.1480
     23.00      0.1690      0.1690
     24.00      0.1904      0.1904
     25.00      0.2142      0.2142
     26.00      0.2383      0.2383
     27.00      0.2624      0.2624
     28.00      0.2864      0.2864
     29.00      0.3135      0.3135
     30.00      0.3417      0.3417
     31.00      0.3692      0.3692
     32.00      0.3962      0.3962
     33.00      0.4223      0.4223
     34.00      0.4473      0.4473
     35.00      0.4716      0.4716
     36.00      0.4963      0.4963
     37.00      0.5218      0.5218
     38.00      0.5476      0.5476
     39.00      0.5736      0.5736
     40.00      0.5996      0.5996
     41.00      0.6258      0.6258
     42.00      0.6521      0.6521
     43.00      0.6785      0.6785
     44.00      0.7050      0.7050
     45.00      0.7314      0.7314
     46.00      0.7580      0.7580
     47.00      0.7846      0.7846
     48.00      0.8110      0.8110
     49.00      0.8373      0.8373
     50.00      0.8634      0.8634
     51.00      0.8894      0.8894
     52.00      0.9152      0.9152
     53.00      0.9408      0.9408
     54.00      0.9662      0.9662
     55.00      0.9915      0.9915
     56.00      1.0166      1.0166
     57.00      1.0411      1.0411
     58.00      1.0651      1.0651
     59.00      1.0887      1.0887
     60.00      1.1117      1.1117
     61.00      1.1344      1.1344
     62.00      1.1566      1.1566
     63.00      1.1783      1.1783
     64.00      1.1996      1.1996
     65.00      1.2205      1.2205
     66.00      1.2408      1.2408
     67.00      1.2606      1.2606
     68.00      1.2798      1.2798
     69.00      1.2981      1.2981
     70.00      1.3154      1.3154
     71.00      1.3319      1.3319
     72.00      1.3477      1.3477
     73.00      1.3629      1.3629
     74.00      1.3776      1.3776
     75.00      1.3915      1.3915
     76.00      1.4049      1.4049
     77.00      1.4177      1.4177
     78.00      1.4294      1.4294
     79.00      1.4400      1.4400
     80.00      1.4497      1.4497
     81.00      1.4584      1.4584
     82.00      1.4661      1.4661
     83.00      1.4731      1.4731
     84.00      1.4792      1.4792
     85.00      1.4845      1.4845
     86.00      1.4893      1.4893
     87.00      1.4931      1.4931
     88.00      1.4962      1.4962
     89.00      1.4989      1.4989
     90.00      1.5000      1.5000
     91.00      1.4989      1.4989
     92.00      1.4962      1.4962
     93.00      1.4931      1.4931
     94.00      1.4893      1.4893
     95.00      1.4845      1.4845
     96.00      1.4792      1.4792
     97.00      1.4731      1.4731
     98.00      1.4661      1.4661
     99.00      1.4584      1.4584
    100.00      1.4497      1.4497
    101.00      1.4400      1.4400
    102.00      1.4294      1.4294
    103.00      1.4177      1.4177
    104.00      1.4049      1.4049
    105.00      1.3915      1.3915
    106.00      1.3776      1.3776
    107.00      1.3629      1.3629
    108.00      1.3477      1.3477
    109.00      1.3319      1.3319
    110.00      1.3154      1.3154
    111.00      1.2981      1.2981
    112.00      1.2798      1.2798
    113.00      1.2606      1.2606
    114.00      1.2408      1.2408
    115.00      1.2205      1.2205
    116.00      1.1996      1.1996
    117.00      1.1783      1.1783
    118.00      1.1566      1.1566
    119.00      1.1344      1.1344
    120.00      1.1117      1.1117
    121.00      1.0887      1.0887
    122.00      1.0651      1.0651
    123.00      1.0411      1.0411
    124.00      1.0166      1.0166
    125.00      0.9915      0.9915
    126.00      0.9662      0.9662
    127.00      0.9408      0.9408
    128.00      0.9152      0.9152
    129.00      0.8894      0.8894
    130.00      0.8634      0.8634
    131.00      0.8373      0.8373
    132.00      0.8110      0.8110
    133.00      0.7846      0.7846
    134.00      0.7580      0.7580
    135.00      0.7314      0.7314
    136.00      0.7050      0.7050
    137.00      0.6785      0.6785
    138.00      0.6521      0.6521
    139.00      0.6258      0.6258
    140.00      0.5996      0.5996
    141.00      0.5736      0.5736
    142.00      0.5476      0.5476
    143.00      0.5218      0.5218
    144.00      0.4963      0.4963
    145.00      0.4713      0.4713
    146.00      0.4467      0.4467
    147.00      0.4223      0.4223
    148.00      0.3981      0.3981
    149.00      0.3742      0.3742
    150.00      0.3508      0.3508
    151.00      0.3280      0.3280
    152.00      0.3057      0.3057
    153.00      0.2839      0.2839
    154.00      0.2627      0.2627
    155.00      0.2420      0.2420
    156.00      0.2219      0.2219
    157.00      0.2024      0.2024
    158.00      0.1834      0.1834
    159.00      0.1651      0.1651
    160.00      0.1475      0.1475
    161.00      0.1306      0.1306
    162.00      0.1145      0.1145
    163.00      0.0993      0.0993
    164.00      0.0849      0.0849
    165.00      0.0714      0.0714
    166.00      0.0579      0.0579
    167.00      0.0451      0.0451
    168.00      0.0360      0.0360
    169.00      0.0304      0.0304
    170.00      0.0262      0.0262
    171.00      0.0230      0.0230
    172.00      0.0206      0.0206
    173.00      0.0187      0.0187
    174.00      0.0171      0.0171
    175.00      0.0156      0.0156
    176.00      0.0143      0.0143
    177.00      0.0134      0.0134
    178.00      0.0128      0.0128
    179.00      0.0123      0.0123
    180.00      0.0121      0.0121
                0.0000      1.0000
   -180.00      0.0000      0.0000
   -179.00      0.0400      0.0400
   -178.00      0.0800      0.0800
   -177.00      0.1200      0.1200
   -176.00      0.1600      0.1600
   -175.00      0.2000      0.2000
   -174.00      0.2400      0.2400
   -173.00      0.2850      0.2850
   -172.00      0.3301      0.3301
   -171.00      0.3600      0.3600
   -170.00      0.3764      0.3764
   -169.00      0.3885      0.3885
   -168.00      0.3933      0.3933
   -167.00      0.3914      0.3914
   -166.00      0.3873      0.3873
   -165.00      0.3832      0.3832
   -164.00      0.3791      0.3791
   -163.00      0.3750      0.3750
   -162.00      0.3732      0.3732
   -161.00      0.3733      0.3733
   -160.00      0.3736      0.3736
   -159.00      0.3741      0.3741
   -158.00      0.3786      0.3786
   -157.00      0.3877      0.3877
   -156.00      0.3969      0.3969
   -155.00      0.4046      0.4046
   -154.00      0.4123      0.4123
   -153.00      0.4198      0.4198
   -152.00      0.4282      0.4282
   -151.00      0.4364      0.4364
   -150.00      0.4407      0.4407
   -149.00      0.4416      0.4416
   -148.00      0.4423      0.4423
   -147.00      0.4425      0.4425
   -146.00      0.4425      0.4425
   -145.00      0.4425      0.4425
   -144.00      0.4424      0.4424
   -143.00      0.4425      0.4425
   -142.00      0.4425      0.4425
   -141.00      0.4427      0.4427
   -140.00      0.4430      0.4430
   -139.00      0.4436      0.4436
   -138.00      0.4442      0.4442
   -137.00      0.4448      0.4448
   -136.00      0.4455      0.4455
   -135.00      0.4461      0.4461
   -134.00      0.4467      0.4467
   -133.00      0.4473      0.4473
   -132.00      0.4480      0.4480
   -131.00      0.4490      0.4490
   -130.00      0.4501      0.4501
   -129.00      0.4514      0.4514
   -128.00      0.4527      0.4527
   -127.00      0.4541      0.4541
   -126.00      0.4556      0.4556
   -125.00      0.4571      0.4571
   -124.00      0.4587      0.4587
   -123.00      0.4603      0.4603
   -122.00      0.4619      0.4619
   -121.00      0.4634      0.4634
   -120.00      0.4648      0.4648
   -119.00      0.4662      0.4662
   -118.00      0.4674      0.4674
   -117.00      0.4687      0.4687
   -116.00      0.4699      0.4699
   -115.00      0.4711      0.4711
   -114.00      0.4723      0.4723
   -113.00      0.4737      0.4737
   -112.00      0.4750      0.4750
   -111.00      0.4759      0.4759
   -110.00      0.4763      0.4763
   -109.00      0.4766      0.4766
   -108.00      0.4768      0.4768
   -107.00      0.4769      0.4769
   -106.00      0.4770      0.4770
   -105.00      0.4770      0.4770
   -104.00      0.4769      0.4769
   -103.00      0.4768      0.4768
   -102.00      0.4766      0.4766
   -101.00      0.4762      0.4762
   -100.00      0.4755      0.4755
    -99.00      0.4746      0.4746
    -98.00      0.4734      0.4734
    -97.00      0.4719      0.4719
    -96.00      0.4703      0.4703
    -95.00      0.4688      0.4688
    -94.00      0.4671      0.4671
    -93.00      0.4654      0.4654
    -92.00      0.4639      0.4639
    -91.00      0.4625      0.4625
    -90.00      0.4605      0.4605
    -89.00      0.4575      0.4575
    -88.00      0.4534      0.4534
    -87.00      0.4493      0.4493
    -86.00      0.4456      0.4456
    -85.00      0.4419      0.4419
    -84.00      0.4382      0.4382
    -83.00      0.4343      0.4343
    -82.00      0.4305      0.4305
    -81.00      0.4265      0.4265
    -80.00      0.4222      0.4222
    -79.00      0.4177      0.4177
    -78.00      0.4131      0.4131
    -77.00      0.4084      0.4084
    -76.00      0.4035      0.4035
    -75.00      0.3986      0.3986