IEA-15-240-RWT_AeroDyn15_Polar_39; 2 361 2 361 2 361
                0.0000      1.0000
   -180.00      0.0000      0.0000
   -179.00      0.0236      0.0236
   -178.00      0.0473      0.0473
   -177.00      0.0709      0.0709
   -176.00      0.0945      0.0945
   -175.00      0.1182      0.1182
   -174.00      0.1418      0.1418
   -173.00      0.1655      0.1655
   -172.00      0.1891      0.1891
   -171.00      0.2127      0.2127
   -170.00      0.2364      0.2364
   -169.00      0.2600      0.2600
   -168.00      0.2836      0.2836
   -167.00      0.3073      0.3073
   -166.00      0.3309      0.3309
   -165.00      0.3545      0.3545
   -164.00      0.3782      0.3782
   -163.00      0.4018      0.4018
   -162.00      0.4255      0.4255
   -161.00      0.4491      0.4491
   -160.00      0.4727      0.4727
   -159.00      0.4964      0.4964
   -158.00      0.5200      0.5200
   -157.00      0.5436      0.5436
   -156.00      0.5673      0.5673
   -155.00      0.5909      0.5909
   -154.00      0.6145      0.6145
   -153.00      0.6382      0.6382
   -152.00      0.6632      0.6632
   -151.00      0.6882      0.6882
   -150.00      0.7091      0.7091
   -149.00      0.7275      0.7275
   -148.00      0.7436      0.7436
   -147.00      0.7504      0.7504
   -146.00      0.7472      0.7472
   -145.00      0.7400      0.7400
   -144.00      0.7327      0.7327
   -143.00      0.7267      0.7267
   -142.00      0.7206      0.7206
   -141.00      0.7144      0.7144
   -140.00      0.7080      0.7080
   -139.00      0.7014      0.7014
   -138.00      0.6946      0.6946
   -137.00      0.6876      0.6876
   -136.00      0.6804      0.6804
   -135.00      0.6729      0.6729
   -134.00      0.6650      0.6650
   -133.00      0.6567      0.6567
   -132.00      0.6481      0.6481
   -131.00      0.6390      0.6390
   -130.00      0.6294      0.6294
   -129.00      0.6196      0.6196
   -128.00      0.6094      0.6094
   -127.00      0.5989      0.5989
   -126.00      0.5881      0.5881
   -125.00      0.5770      0.5770
   -124.00      0.5656      0.5656
   -123.00      0.5536      0.5536
   -122.00      0.5411      0.5411
   -121.00      0.5280      0.5280
   -120.00      0.5146      0.5146
   -119.00      0.5009      0.5009
   -118.00      0.4868      0.4868
   -117.00      0.4725      0.4725
   -116.00      0.4578      0.4578
   -115.00      0.4429      0.4429
   -114.00      0.4277      0.4277
   -113.00      0.4121      0.4121
   -112.00      0.3962      0.3962
   -111.00      0.3800      0.3800
   -110.00      0.3633      0.3633
   -109.00      0.3463      0.3463
   -108.00      0.3292      0.3292
   -107.00      0.3119      0.3119
   -106.00      0.2943      0.2943
   -105.00      0.2767      0.2767
   -104.00      0.2589      0.2589
   -103.00      0.2409      0.2409
   -102.00      0.2227      0.2227
   -101.00      0.2044      0.2044
   -100.00      0.1859      0.1859
    -99.00      0.1673      0.1673
    -98.00      0.1487      0.1487
    -97.00      0.1301      0.1301
    -96.00      0.1114      0.1114
    -95.00      0.0928      0.0928
    -94.00      0.0742      0.0742
    -93.00      0.0556      0.0556
    -92.00      0.0370      0.0370
    -91.00      0.0185      0.0185
    -90.00     -0.0000     -0.0000
    -89.00     -0.0185     -0.0185
    -88.00     -0.0370     -0.0370
    -87.00     -0.0556     -0.0556
    -86.00     -0.0742     -0.0742
    -85.00     -0.0928     -0.0928
    -84.00     -0.1114     -0.1114
    -83.00     -0.1301     -0.1301
    -82.00     -0.1487     -0.1487
    -81.00     -0.1673     -0.1673
    -80.00     -0.1859     -0.1859
    -79.00     -0.2044     -0.2044
    -78.00     -0.2227     -0.2227
    -77.00     -0.2409     -0.2409
    -76.00     -0.2589     -0.2589
    -75.00     -0.2767     -0.2767
    -74.00     -0.2943     -0.2943
    -73.00     -0.3119     -0.3119
    -72.00     -0.3292     -0.3292
    -71.00     -0.3463     -0.3463
    -70.00     -0.3633     -0.3633
    -69.00     -0.3800     -0.3800
    -68.00     -0.3962     -0.3962
    -67.00     -0.4121     -0.4121
    -66.00     -0.4277     -0.4277
    -65.00     -0.4429     -0.4429
    -64.00     -0.4578     -0.4578
    -63.00     -0.4725     -0.4725
    -62.00     -0.4868     -0.4868
    -61.00     -0.5009     -0.5009
    -60.00     -0.5146     -0.5146
    -59.00     -0.5280     -0.5280
    -58.00     -0.5411     -0.5411
    -57.00     -0.5536     -0.5536
    -56.00     -0.5656     -0.5656
    -55.00     -0.5770     -0.5770
    -54.00     -0.5881     -0.5881
    -53.00     -0.5989     -0.5989
    -52.00     -0.6094     -0.6094
    -51.00     -0.6196     -0.6196
    -50.00     -0.6294     -0.6294
    -49.00     -0.6390     -0.6390
    -48.00     -0.6481     -0.6481
    -47.00     -0.6584     -0.6584
    -46.00     -0.6684     -0.6684
    -45.00     -0.6729     -0.6729
    -44.00     -0.6700     -0.6700
    -43.00     -0.6636     -0.6636
    -42.00     -0.6571     -0.6571
    -41.00     -0.6514     -0.6514
    -40.00     -0.6455     -0.6455
    -39.00     -0.6394     -0.6394
    -38.00     -0.6332     -0.6332
    -37.00     -0.6267     -0.6267
    -36.00     -0.6202     -0.6202
    -35.00     -0.6122     -0.6122
    -34.00     -0.6041     -0.6041
    -33.00     -0.6004     -0.6004
    -32.00     -0.6052     -0.6052
    -31.00     -0.6172     -0.6172
    -30.00     -0.6329     -0.6329
    -29.00     -0.6571     -0.6571
    -28.00     -0.6874     -0.6874
    -27.00     -0.7709     -0.7709
    -26.00     -0.8610     -0.8610
    -25.00     -0.9536     -0.9536
    -24.00     -1.0517     -1.0517
    -23.00     -1.0789     -1.0789
    -22.00     -1.1047     -1.1047
    -21.00     -1.1304     -1.1304
    -20.00     -1.1539     -1.1539
    -19.00     -1.1616     -1.1616
    -18.00     -1.1669     -1.1669
    -17.00     -1.1672     -1.1672
    -16.00     -1.1672     -1.1672
    -15.00     -1.1668     -1.1668
    -14.00     -1.1635     -1.1635
    -13.00     -1.1327     -1.1327
    -12.00     -1.0917     -1.0917
    -11.00     -0.9911     -0.9911
    -10.00     -0.8830     -0.8830
     -9.00     -0.7568     -0.7568
     -8.00     -0.6305     -0.6305
     -7.00     -0.5039     -0.5039
     -6.00     -0.3771     -0.3771
     -5.00     -0.2495     -0.2495
     -4.00     -0.1219     -0.1219
     -3.00      0.0032      0.0032
     -2.00      0.1280      0.1280
     -1.00      0.2518      0.2518
      0.00      0.3751      0.3751
      1.00      0.4978      0.4978
      2.00      0.6198      0.6198
      3.00      0.7409      0.7409
      4.00      0.8609      0.8609
      5.00      0.9789      0.9789
      6.00      1.0935      1.0935
      7.00      1.2050      1.2050
      8.00      1.3111      1.3111
      9.00      1.4144      1.4144
     10.00      1.5143      1.5143
     11.00      1.6072      1.6072
     12.00      1.6930      1.6930
     13.00      1.7671      1.7671
     14.00      1.8130      1.8130
     15.00      1.8144      1.8144
     16.00      1.7571      1.7571
     17.00      1.6657      1.6657
     18.00      1.5750      1.5750
     19.00      1.5080      1.5080
     20.00      1.4450      1.4450
     21.00      1.3966      1.3966
     22.00      1.3504      1.3504
     23.00      1.3042      1.3042
     24.00      1.2578      1.2578
     25.00      1.2085      1.2085
     26.00      1.1679      1.1679
     27.00      1.1294      1.1294
     28.00      1.0906      1.0906
     29.00      1.0398      1.0398
     30.00      0.9981      0.9981
     31.00      0.9638      0.9638
     32.00      0.9345      0.9345
     33.00      0.9221      0.9221
     34.00      0.9244      0.9244
     35.00      0.9293      0.9293
     36.00      0.9342      0.9342
     37.00      0.9382      0.9382
     38.00      0.9420      0.9420
     39.00      0.9456      0.9456
     40.00      0.9489      0.9489
     41.00      0.9520      0.9520
     42.00      0.9547      0.9547
     43.00      0.9576      0.9576
     44.00      0.9601      0.9601
     45.00      0.9613      0.9613
     46.00      0.9549      0.9549
     47.00      0.9406      0.9406
     48.00      0.9258      0.9258
     49.00      0.9128      0.9128
     50.00      0.8992      0.8992
     51.00      0.8851      0.8851
     52.00      0.8706      0.8706
     53.00      0.8556      0.8556
     54.00      0.8401      0.8401
     55.00      0.8243      0.8243
     56.00      0.8079      0.8079
     57.00      0.7909      0.7909
     58.00      0.7730      0.7730
     59.00      0.7543      0.7543
     60.00      0.7351      0.7351
     61.00      0.7155      0.7155
     62.00      0.6955      0.6955
     63.00      0.6750      0.6750
     64.00      0.6541      0.6541
     65.00      0.6327      0.6327
     66.00      0.6110      0.6110
     67.00      0.5887      0.5887
     68.00      0.5660      0.5660
     69.00      0.5428      0.5428
     70.00      0.5190      0.5190
     71.00      0.4948      0.4948
     72.00      0.4702      0.4702
     73.00      0.4455      0.4455
     74.00      0.4205      0.4205
     75.00      0.3953      0.3953
     76.00      0.3698      0.3698
     77.00      0.3441      0.3441
     78.00      0.3182      0.3182
     79.00      0.2920      0.2920
     80.00      0.2655      0.2655
     81.00      0.2390      0.2390
     82.00      0.2125      0.2125
     83.00      0.1858      0.1858
     84.00      0.1592      0.1592
     85.00      0.1326      0.1326
     86.00      0.1060      0.1060
     87.00      0.0794      0.0794
     88.00      0.0519      0.0519
     89.00      0.0244      0.0244
     90.00      0.0000      0.0000
     91.00     -0.0200     -0.0200
     92.00     -0.0378     -0.0378
     93.00     -0.0556     -0.0556
     94.00     -0.0742     -0.0742
     95.00     -0.0928     -0.0928
     96.00     -0.1114     -0.1114
     97.00     -0.1301     -0.1301
     98.00     -0.1487     -0.1487
     99.00     -0.1673     -0.1673
    100.00     -0.1859     -0.1859
    101.00     -0.2044     -0.2044
    102.00     -0.2227     -0.2227
    103.00     -0.2409     -0.2409
    104.00     -0.2589     -0.2589
    105.00     -0.2767     -0.2767
    106.00     -0.2943     -0.2943
    107.00     -0.3119     -0.3119
    108.00     -0.3292     -0.3292
    109.00     -0.3463     -0.3463
    110.00     -0.3633     -0.3633
    111.00     -0.3800     -0.3800
    112.00     -0.3962     -0.3962
    113.00     -0.4121     -0.4121
    114.00     -0.4277     -0.4277
    115.00     -0.4429     -0.4429
    116.00     -0.4578     -0.4578
    117.00     -0.4725     -0.4725
    118.00     -0.4868     -0.4868
    119.00     -0.5009     -0.5009
    120.00     -0.5146     -0.5146
    121.00     -0.5280     -0.5280
    122.00     -0.5411     -0.5411
    123.00     -0.5536     -0.5536
    124.00     -0.5656     -0.5656
    125.00     -0.5770     -0.5770
    126.00     -0.5881     -0.5881
    127.00     -0.5989     -0.5989
    128.00     -0.6094     -0.6094
    129.00     -0.6196     -0.6196
    130.00     -0.6294     -0.6294
    131.00     -0.6390     -0.6390
    132.00     -0.6481     -0.6481
    133.00     -0.6567     -0.6567
    134.00     -0.6650     -0.6650
    135.00     -0.6729     -0.6729
    136.00     -0.6804     -0.6804
    137.00     -0.6876     -0.6876
    138.00     -0.6946     -0.6946
    139.00     -0.7014     -0.7014
    140.00     -0.7080     -0.7080
    141.00     -0.7144     -0.7144
    142.00     -0.7206     -0.7206
    143.00     -0.7267     -0.7267
    144.00     -0.7327     -0.7327
    145.00     -0.7400     -0.7400
    146.00     -0.7472     -0.7472
    147.00     -0.7504     -0.7504
    148.00     -0.7436     -0.7436
    149.00     -0.7275     -0.7275
    150.00     -0.7091     -0.7091
    151.00     -0.6882     -0.6882
    152.00     -0.6632     -0.6632
    153.00     -0.6382     -0.6382
    154.00     -0.6145     -0.6145
    155.00     -0.5909     -0.5909
    156.00     -0.5673     -0.5673
    157.00     -0.5436     -0.5436
    158.00     -0.5200     -0.5200
    159.00     -0.4964     -0.4964
    160.00     -0.4727     -0.4727
    161.00     -0.4491     -0.4491
    162.00     -0.4254     -0.4254
    163.00     -0.4018     -0.4018
    164.00     -0.3782     -0.3782
    165.00     -0.3545     -0.3545
    166.00     -0.3309     -0.3309
    167.00     -0.3073     -0.3073
    168.00     -0.2836     -0.2836
    169.00     -0.2600     -0.2600
    170.00     -0.2364     -0.2364
    171.00     -0.2127     -0.2127
    172.00     -0.1891     -0.1891
    173.00     -0.1655     -0.1655
    174.00     -0.1418     -0.1418
    175.00     -0.1182     -0.1182
    176.00     -0.0945     -0.0945
    177.00     -0.0709     -0.0709
    178.00     -0.0473     -0.0473
    179.00     -0.0236     -0.0236
    180.00      0.0000      0.0000
                0.0000      1.0000
   -180.00      0.0246      0.0246
   -179.00      0.0249      0.0249
   -178.00      0.0254      0.0254
   -177.00      0.0260      0.0260
   -176.00      0.0269      0.0269
   -175.00      0.0281      0.0281
   -174.00      0.0296      0.0296
   -173.00      0.0310      0.0310
   -172.00      0.0328      0.0328
   -171.00      0.0354      0.0354
   -170.00      0.0415      0.0415
   -169.00      0.0515      0.0515
   -168.00      0.0624      0.0624
   -167.00      0.0733      0.0733
   -166.00      0.0854      0.0854
   -165.00      0.0981      0.0981
   -164.00      0.1115      0.1115
   -163.00      0.1257      0.1257
   -162.00      0.1406      0.1406
   -161.00      0.1564      0.1564
   -160.00      0.1729      0.1729
   -159.00      0.1901      0.1901
   -158.00      0.2080      0.2080
   -157.00      0.2267      0.2267
   -156.00      0.2458      0.2458
   -155.00      0.2656      0.2656
   -154.00      0.2859      0.2859
   -153.00      0.3067      0.3067
   -152.00      0.3281      0.3281
   -151.00      0.3501      0.3501
   -150.00      0.3726      0.3726
   -149.00      0.3956      0.3956
   -148.00      0.4192      0.4192
   -147.00      0.4430      0.4430
   -146.00      0.4670      0.4670
   -145.00      0.4913      0.4913
   -144.00      0.5159      0.5159
   -143.00      0.5410      0.5410
   -142.00      0.5665      0.5665
   -141.00      0.5921      0.5921
   -140.00      0.6178      0.6178
   -139.00      0.6437      0.6437
   -138.00      0.6696      0.6696
   -137.00      0.6956      0.6956
   -136.00      0.7217      0.7217
   -135.00      0.7479      0.7479
   -134.00      0.7741      0.7741
   -133.00      0.8003      0.8003
   -132.00      0.8264      0.8264
   -131.00      0.8523      0.8523
   -130.00      0.8781      0.8781
   -129.00      0.9037      0.9037
   -128.00      0.9291      0.9291
   -127.00      0.9544      0.9544
   -126.00      0.9795      0.9795
   -125.00      1.0044      1.0044
   -124.00      1.0291      1.0291
   -123.00      1.0533      1.0533
   -122.00      1.0770      1.0770
   -121.00      1.1001      1.1001
   -120.00      1.1228      1.1228
   -119.00      1.1451      1.1451
   -118.00      1.1670      1.1670
   -117.00      1.1883      1.1883
   -116.00      1.2093      1.2093
   -115.00      1.2298      1.2298
   -114.00      1.2498      1.2498
   -113.00      1.2692      1.2692
   -112.00      1.2880      1.2880
   -111.00      1.3059      1.3059
   -110.00      1.3229      1.3229
   -109.00      1.3390      1.3390
   -108.00      1.3544      1.3544
   -107.00      1.3693      1.3693
   -106.00      1.3836      1.3836
   -105.00      1.3971      1.3971
   -104.00      1.4102      1.4102
   -103.00      1.4226      1.4226
   -102.00      1.4339      1.4339
   -101.00      1.4441      1.4441
   -100.00      1.4535      1.4535
    -99.00      1.4618      1.4618
    -98.00      1.4691      1.4691
    -97.00      1.4757      1.4757
    -96.00      1.4814      1.4814
    -95.00      1.4864      1.4864
    -94.00      1.4908      1.4908
    -93.00      1.4942      1.4942
    -92.00      1.4969      1.4969
    -91.00      1.4991      1.4991
    -90.00      1.5000      1.5000
    -89.00      1.4991      1.4991
    -88.00      1.4969      1.4969
    -87.00      1.4942      1.4942
    -86.00      1.4908      1.4908
    -85.00      1.4864      1.4864
    -84.00      1.4814      1.4814
    -83.00      1.4757      1.4757
    -82.00      1.4691      1.4691
    -81.00      1.4618      1.4618
    -80.00      1.4535      1.4535
    -79.00      1.4441      1.4441
    -78.00      1.4339      1.4339
    -77.00      1.4226      1.4226
    -76.00      1.4102      1.4102
    -75.00      1.3971      1.3971
    -74.00      1.3836      1.3836
    -73.00      1.3693      1.3693
    -72.00      1.3544      1.3544
    -71.00      1.3390      1.3390
    -70.00      1.3229      1.3229
    -69.00      1.3059      1.3059
    -68.00      1.2880      1.2880
    -67.00      1.2692      1.2692
    -66.00      1.2498      1.2498
    -65.00      1.2298      1.2298
    -64.00      1.2093      1.2093
    -63.00      1.1883      1.1883
    -62.00      1.1670      1.1670
    -61.00      1.1451      1.1451
    -60.00      1.1228      1.1228
    -59.00      1.1001      1.1001
    -58.00      1.0770      1.0770
    -57.00      1.0533      1.0533
    -56.00      1.0291      1.0291
    -55.00      1.0044      1.0044
    -54.00      0.9795      0.9795
    -53.00      0.9544      0.9544
    -52.00      0.9291      0.9291
    -51.00      0.9037      0.9037
    -50.00      0.8781      0.8781
    -49.00      0.8523      0.8523
    -48.00      0.8264      0.8264
    -47.00      0.8003      0.8003
    -46.00      0.7741      0.7741
    -45.00      0.7479      0.7479
    -44.00      0.7217      0.7217
    -43.00      0.6956      0.6956
    -42.00      0.6696      0.6696
    -41.00      0.6437      0.6437
    -40.00      0.6178      0.6178
    -39.00      0.5921      0.5921
    -38.00      0.5665      0.5665
    -37.00      0.5410      0.5410
    -36.00      0.5159      0.5159
    -35.00      0.4920      0.4920
    -34.00      0.4683      0.4683
    -33.00      0.4430      0.4430
    -32.00      0.4147      0.4147
    -31.00      0.3843      0.3843
    -30.00      0.3528      0.3528
    -29.00      0.3199      0.3199
    -28.00      0.2866      0.2866
    -27.00      0.2501      0.2501
    -26.00      0.2133      0.2133
    -25.00      0.1764      0.1764
    -24.00      0.1401      0.1401
    -23.00      0.1256      0.1256
    -22.00      0.1115      0.1115
    -21.00      0.0975      0.0975
    -20.00      0.0840      0.0840
    -19.00      0.0743      0.0743
    -18.00      0.0652      0.0652
    -17.00      0.0570      0.0570
    -16.00      0.0489      0.0489
    -15.00      0.0415      0.0415
    -14.00      0.0343      0.0343
    -13.00      0.0277      0.0277
    -12.00      0.0216      0.0216
    -11.00      0.0176      0.0176
    -10.00      0.0139      0.0139
     -9.00      0.0123      0.0123
     -8.00      0.0108      0.0108
     -7.00      0.0098      0.0098
     -6.00      0.0088      0.0088
     -5.00      0.0079      0.0079
     -4.00      0.0070      0.0070
     -3.00      0.0068      0.0068
     -2.00      0.0066      0.0066
     -1.00      0.0066      0.0066
      0.00      0.0067      0.0067
      1.00      0.0068      0.0068
      2.00      0.0070      0.0070
      3.00      0.0072      0.0072
      4.00      0.0075      0.0075
      5.00      0.0080      0.0080
      6.00      0.0087      0.0087
      7.00      0.0097      0.0097
      8.00      0.0110      0.0110
      9.00      0.0123      0.0123
     10.00      0.0137      0.0137
     11.00      0.0153      0.0153
     12.00      0.0172      0.0172
     13.00      0.0198      0.0198
     14.00      0.0240      0.0240
     15.00      0.0313      0.0313
     16.00      0.0432      0.0432
     17.00      0.0602      0.0602
     18.00      0.0773      0.0773
     19.00      0.0947      0.0947
     20.00      0.1121      0.1121
     21.00      0.1300      0.1300
     22.00      0.1480      0.1480
     23.00      0.1661      0.1661
     24.00      0.1842      0.1842
     25.00      0.2070      0.2070
     26.00      0.2300      0.2300
     27.00      0.2529      0.2529
     28.00      0.2771      0.2771
     29.00      0.3116      0.3116
     30.00      0.3473      0.3473
     31.00      0.3812      0.3812
     32.00      0.4135      0.4135
     33.00      0.4430      0.4430
     34.00      0.4687      0.4687
     35.00      0.4921      0.4921
     36.00      0.5159      0.5159
     37.00      0.5410      0.5410
     38.00      0.5665      0.5665
     39.00      0.5921      0.5921
     40.00      0.6178      0.6178
     41.00      0.6437      0.6437
     42.00      0.6696      0.6696
     43.00      0.6956      0.6956
     44.00      0.7217      0.7217
     45.00      0.7479      0.7479
     46.00      0.7741      0.7741
     47.00      0.8003      0.8003
     48.00      0.8264      0.8264
     49.00      0.8523      0.8523
     50.00      0.8781      0.8781
     51.00      0.9037      0.9037
     52.00      0.9291      0.9291
     53.00      0.9544      0.9544
     54.00      0.9795      0.9795
     55.00      1.0044      1.0044
     56.00      1.0291      1.0291
     57.00      1.0533      1.0533
     58.00      1.0770      1.0770
     59.00      1.1001      1.1001
     60.00      1.1228      1.1228
     61.00      1.1451      1.1451
     62.00      1.1670      1.1670
     63.00      1.1883      1.1883
     64.00      1.2093      1.2093
     65.00      1.2298      1.2298
     66.00      1.2498      1.2498
     67.00      1.2692      1.2692
     68.00      1.2880      1.2880
     69.00      1.3059      1.3059
     70.00      1.3229      1.3229
     71.00      1.3390      1.3390
     72.00      1.3544      1.3544
     73.00      1.3693      1.3693
     74.00      1.3836      1.3836
     75.00      1.3971      1.3971
     76.00      1.4102      1.4102
     77.00      1.4226      1.4226
     78.00      1.4339      1.4339
     79.00      1.4441      1.4441
     80.00      1.4535      1.4535
     81.00      1.4618      1.4618
     82.00      1.4691      1.4691
     83.00      1.4757      1.4757
     84.00      1.4814      1.4814
     85.00      1.4864      1.4864
     86.00      1.4908      1.4908
     87.00      1.4942      1.4942
     88.00      1.4969      1.4969
     89.00      1.4991      1.4991
     90.00      1.5000      1.5000
     91.00      1.4991      1.4991
     92.00      1.4969      1.4969
     93.00      1.4942      1.4942
     94.00      1.4908      1.4908
     95.00      1.4864      1.4864
     96.00      1.4814      1.4814
     97.00      1.4757      1.4757
     98.00      1.4691      1.4691
     99.00      1.4618      1.4618
    100.00      1.4535      1.4535
    101.00      1.4441      1.4441
    102.00      1.4339      1.4339
    103.00      1.4226      1.4226
    104.00      1.4102      1.4102
    105.00      1.3971      1.3971
    106.00      1.3836      1.3836
    107.00      1.3693      1.3693
    108.00      1.3544      1.3544
    109.00      1.3390      1.3390
    110.00      1.3229      1.3229
    111.00      1.3059      1.3059
    112.00      1.2880      1.2880
    113.00      1.2692      1.2692
    114.00      1.2498      1.2498
    115.00      1.2298      1.2298
    116.00      1.2093      1.2093
    117.00      1.1883      1.1883
    118.00      1.1670      1.1670
    119.00      1.1451      1.1451
    120.00      1.1228      1.1228
    121.00      1.1001      1.1001
    122.00      1.0770      1.0770
    123.00      1.0533      1.0533
    124.00      1.0291      1.0291
    125.00      1.0044      1.0044
    126.00      0.9795      0.9795
    127.00      0.9544      0.9544
    128.00      0.9291      0.9291
    129.00      0.9037      0.9037
    130.00      0.8781      0.8781
    131.00      0.8523      0.8523
    132.00      0.8264      0.8264
    133.00      0.8003      0.8003
    134.00      0.7741      0.7741
    135.00      0.7479      0.7479
    136.00      0.7217      0.7217
    137.00      0.6956      0.6956
    138.00      0.6696      0.6696
    139.00      0.6437      0.6437
    140.00      0.6178      0.6178
    141.00      0.5921      0.5921
    142.00      0.5665      0.5665
    143.00      0.5410      0.5410
    144.00      0.5159      0.5159
    145.00      0.4913      0.4913
    146.00      0.4670      0.4670
    147.00      0.4430      0.4430
    148.00      0.4192      0.4192
    149.00      0.3956      0.3956
    150.00      0.3726      0.3726
    151.00      0.3501      0.3501
    152.00      0.3281      0.3281
    153.00      0.3067      0.3067
    154.00      0.2859      0.2859
    155.00      0.2656      0.2656
    156.00      0.2458      0.2458
    157.00      0.2267      0.2267
    158.00      0.2080      0.2080
    159.00      0.1901      0.1901
    160.00      0.1729      0.1729
    161.00      0.1564      0.1564
    162.00      0.1406      0.1406
    163.00      0.1257      0.1257
    164.00      0.1115      0.1115
    165.00      0.0981      0.0981
    166.00      0.0854      0.0854
    167.00      0.0733      0.0733
    168.00      0.0624      0.0624
    169.00      0.0515      0.0515
    170.00      0.0415      0.0415
    171.00      0.0354      0.0354
    172.00      0.0328      0.0328
    173.00      0.0310      0.0310
    174.00      0.0296      0.0296
    175.00      0.0281      0.0281
    176.00      0.0269      0.0269
    177.00      0.0260      0.0260
    178.00      0.0254      0.0254
    179.00      0.0249      0.0249
    180.00      0.0246      0.0246
                0.0000      1.0000
   -180.00      0.0000      0.0000
   -179.00      0.0400      0.0400
   -178.00      0.0800      0.0800
   -177.00      0.1200      0.1200
   -176.00      0.1600      0.1600
   -175.00      0.2000      0.2000
   -174.00      0.2400      0.2400
   -173.00      0.2855      0.2855
   -172.00      0.3309      0.3309
   -171.00      0.3600      0.3600
   -170.00      0.3743      0.3743
   -169.00      0.3847      0.3847
   -168.00      0.3887      0.3887
   -167.00      0.3855      0.3855
   -166.00      0.3786      0.3786
   -165.00      0.3717      0.3717
   -164.00      0.3653      0.3653
   -163.00      0.3588      0.3588
   -162.00      0.3547      0.3547
   -161.00      0.3528      0.3528
   -160.00      0.3514      0.3514
   -159.00      0.3509      0.3509
   -158.00      0.3550      0.3550
   -157.00      0.3641      0.3641
   -156.00      0.3732      0.3732
   -155.00      0.3807      0.3807
   -154.00      0.3883      0.3883
   -153.00      0.3956      0.3956
   -152.00      0.4036      0.4036
   -151.00      0.4115      0.4115
   -150.00      0.4163      0.4163
   -149.00      0.4181      0.4181
   -148.00      0.4193      0.4193
   -147.00      0.4203      0.4203
   -146.00      0.4212      0.4212
   -145.00      0.4220      0.4220
   -144.00      0.4228      0.4228
   -143.00      0.4236      0.4236
   -142.00      0.4244      0.4244
   -141.00      0.4252      0.4252
   -140.00      0.4263      0.4263
   -139.00      0.4274      0.4274
   -138.00      0.4285      0.4285
   -137.00      0.4298      0.4298
   -136.00      0.4311      0.4311
   -135.00      0.4324      0.4324
   -134.00      0.4336      0.4336
   -133.00      0.4349      0.4349
   -132.00      0.4362      0.4362
   -131.00      0.4377      0.4377
   -130.00      0.4393      0.4393
   -129.00      0.4410      0.4410
   -128.00      0.4427      0.4427
   -127.00      0.4445      0.4445
   -126.00      0.4463      0.4463
   -125.00      0.4482      0.4482
   -124.00      0.4501      0.4501
   -123.00      0.4520      0.4520
   -122.00      0.4538      0.4538
   -121.00      0.4556      0.4556
   -120.00      0.4572      0.4572
   -119.00      0.4588      0.4588
   -118.00      0.4602      0.4602
   -117.00      0.4616      0.4616
   -116.00      0.4630      0.4630
   -115.00      0.4643      0.4643
   -114.00      0.4656      0.4656
   -113.00      0.4671      0.4671
   -112.00      0.4686      0.4686
   -111.00      0.4696      0.4696
   -110.00      0.4701      0.4701
   -109.00      0.4704      0.4704
   -108.00      0.4706      0.4706
   -107.00      0.4708      0.4708
   -106.00      0.4709      0.4709
   -105.00      0.4710      0.4710
   -104.00      0.4709      0.4709
   -103.00      0.4709      0.4709
   -102.00      0.4707      0.4707
   -101.00      0.4703      0.4703
   -100.00      0.4696      0.4696
    -99.00      0.4687      0.4687
    -98.00      0.4676      0.4676
    -97.00      0.4661      0.4661
    -96.00      0.4645      0.4645
    -95.00      0.4629      0.4629
    -94.00      0.4613      0.4613
    -93.00      0.4596      0.4596
    -92.00      0.4581      0.4581
    -91.00      0.4566      0.4566
    -90.00      0.4547      0.4547
    -89.00      0.4518      0.4518
    -88.00      0.4480      0.4480
    -87.00      0.4443      0.4443
    -86.00      0.4408      0.4408
    -85.00      0.4373      0.4373
    -84.00      0.4338      0.4338
    -83.00      0.4302      0.4302
    -82.00      0.4266      0.4266
    -81.00      0.4228      0.4228
    -80.00      0.4187      0.4187
    -79.00      0.4144      0.4144
    -78.00      0.4100      0.4100
    -77.00      0.4055      0.4055
    -76.00      0.4007      0.4007
    -75.00      0.3960      0.3960