IEA-15-240-RWT_AeroDyn15_Polar_24; 2 361 2 361 2 361
                0.0000      1.0000
   -180.00      0.0000      0.0000
   -179.00      0.0278      0.0278
   -178.00      0.0556      0.0556
   -177.00      0.0834      0.0834
   -176.00      0.1112      0.1112
   -175.00      0.1390      0.1390
   -174.00      0.1668      0.1668
   -173.00      0.1946      0.1946
   -172.00      0.2225      0.2225
   -171.00      0.2503      0.2503
   -170.00      0.2781      0.2781
   -169.00      0.3059      0.3059
   -168.00      0.3337      0.3337
   -167.00      0.3615      0.3615
   -166.00      0.3893      0.3893
   -165.00      0.4171      0.4171
   -164.00      0.4449      0.4449
   -163.00      0.4727      0.4727
   -162.00      0.5005      0.5005
   -161.00      0.5283      0.5283
   -160.00      0.5561      0.5561
   -159.00      0.5839      0.5839
   -158.00      0.6117      0.6117
   -157.00      0.6396      0.6396
   -156.00      0.6674      0.6674
   -155.00      0.6952      0.6952
   -154.00      0.7230      0.7230
   -153.00      0.7508      0.7508
   -152.00      0.7807      0.7807
   -151.00      0.8106      0.8106
   -150.00      0.8342      0.8342
   -149.00      0.8529      0.8529
   -148.00      0.8686      0.8686
   -147.00      0.8751      0.8751
   -146.00      0.8668      0.8668
   -145.00      0.8486      0.8486
   -144.00      0.8310      0.8310
   -143.00      0.8174      0.8174
   -142.00      0.8043      0.8043
   -141.00      0.7913      0.7913
   -140.00      0.7784      0.7784
   -139.00      0.7656      0.7656
   -138.00      0.7528      0.7528
   -137.00      0.7402      0.7402
   -136.00      0.7276      0.7276
   -135.00      0.7150      0.7150
   -134.00      0.7023      0.7023
   -133.00      0.6896      0.6896
   -132.00      0.6766      0.6766
   -131.00      0.6634      0.6634
   -130.00      0.6501      0.6501
   -129.00      0.6365      0.6365
   -128.00      0.6228      0.6228
   -127.00      0.6088      0.6088
   -126.00      0.5947      0.5947
   -125.00      0.5806      0.5806
   -124.00      0.5663      0.5663
   -123.00      0.5517      0.5517
   -122.00      0.5369      0.5369
   -121.00      0.5217      0.5217
   -120.00      0.5064      0.5064
   -119.00      0.4910      0.4910
   -118.00      0.4753      0.4753
   -117.00      0.4595      0.4595
   -116.00      0.4436      0.4436
   -115.00      0.4275      0.4275
   -114.00      0.4113      0.4113
   -113.00      0.3948      0.3948
   -112.00      0.3782      0.3782
   -111.00      0.3615      0.3615
   -110.00      0.3446      0.3446
   -109.00      0.3274      0.3274
   -108.00      0.3103      0.3103
   -107.00      0.2930      0.2930
   -106.00      0.2757      0.2757
   -105.00      0.2584      0.2584
   -104.00      0.2409      0.2409
   -103.00      0.2235      0.2235
   -102.00      0.2060      0.2060
   -101.00      0.1885      0.1885
   -100.00      0.1709      0.1709
    -99.00      0.1534      0.1534
    -98.00      0.1360      0.1360
    -97.00      0.1187      0.1187
    -96.00      0.1014      0.1014
    -95.00      0.0843      0.0843
    -94.00      0.0672      0.0672
    -93.00      0.0502      0.0502
    -92.00      0.0334      0.0334
    -91.00      0.0167      0.0167
    -90.00     -0.0000     -0.0000
    -89.00     -0.0167     -0.0167
    -88.00     -0.0334     -0.0334
    -87.00     -0.0502     -0.0502
    -86.00     -0.0672     -0.0672
    -85.00     -0.0843     -0.0843
    -84.00     -0.1014     -0.1014
    -83.00     -0.1187     -0.1187
    -82.00     -0.1360     -0.1360
    -81.00     -0.1534     -0.1534
    -80.00     -0.1709     -0.1709
    -79.00     -0.1885     -0.1885
    -78.00     -0.2060     -0.2060
    -77.00     -0.2235     -0.2235
    -76.00     -0.2409     -0.2409
    -75.00     -0.2584     -0.2584
    -74.00     -0.2757     -0.2757
    -73.00     -0.2930     -0.2930
    -72.00     -0.3103     -0.3103
    -71.00     -0.3274     -0.3274
    -70.00     -0.3446     -0.3446
    -69.00     -0.3615     -0.3615
    -68.00     -0.3782     -0.3782
    -67.00     -0.3948     -0.3948
    -66.00     -0.4113     -0.4113
    -65.00     -0.4275     -0.4275
    -64.00     -0.4436     -0.4436
    -63.00     -0.4595     -0.4595
    -62.00     -0.4753     -0.4753
    -61.00     -0.4910     -0.4910
    -60.00     -0.5064     -0.5064
    -59.00     -0.5217     -0.5217
    -58.00     -0.5369     -0.5369
    -57.00     -0.5517     -0.5517
    -56.00     -0.5663     -0.5663
    -55.00     -0.5806     -0.5806
    -54.00     -0.5947     -0.5947
    -53.00     -0.6088     -0.6088
    -52.00     -0.6228     -0.6228
    -51.00     -0.6365     -0.6365
    -50.00     -0.6501     -0.6501
    -49.00     -0.6634     -0.6634
    -48.00     -0.6766     -0.6766
    -47.00     -0.6901     -0.6901
    -46.00     -0.7034     -0.7034
    -45.00     -0.7150     -0.7150
    -44.00     -0.7241     -0.7241
    -43.00     -0.7320     -0.7320
    -42.00     -0.7403     -0.7403
    -41.00     -0.7494     -0.7494
    -40.00     -0.7589     -0.7589
    -39.00     -0.7687     -0.7687
    -38.00     -0.7789     -0.7789
    -37.00     -0.7895     -0.7895
    -36.00     -0.8008     -0.8008
    -35.00     -0.8117     -0.8117
    -34.00     -0.8235     -0.8235
    -33.00     -0.8397     -0.8397
    -32.00     -0.8686     -0.8686
    -31.00     -0.9108     -0.9108
    -30.00     -0.9578     -0.9578
    -29.00     -1.0109     -1.0109
    -28.00     -1.0587     -1.0587
    -27.00     -1.0619     -1.0619
    -26.00     -1.0591     -1.0591
    -25.00     -1.0579     -1.0579
    -24.00     -1.0583     -1.0583
    -23.00     -1.0606     -1.0606
    -22.00     -1.0644     -1.0644
    -21.00     -1.0682     -1.0682
    -20.00     -1.0700     -1.0700
    -19.00     -1.0700     -1.0700
    -18.00     -1.0695     -1.0695
    -17.00     -1.0658     -1.0658
    -16.00     -1.0622     -1.0622
    -15.00     -1.0763     -1.0763
    -14.00     -1.0931     -1.0931
    -13.00     -1.0949     -1.0949
    -12.00     -1.0838     -1.0838
    -11.00     -1.0074     -1.0074
    -10.00     -0.9211     -0.9211
     -9.00     -0.8088     -0.8088
     -8.00     -0.6940     -0.6940
     -7.00     -0.5711     -0.5711
     -6.00     -0.4463     -0.4463
     -5.00     -0.3100     -0.3100
     -4.00     -0.1722     -0.1722
     -3.00     -0.0334     -0.0334
     -2.00      0.1054      0.1054
     -1.00      0.2408      0.2408
      0.00      0.3741      0.3741
      1.00      0.5069      0.5069
      2.00      0.6381      0.6381
      3.00      0.7679      0.7679
      4.00      0.8965      0.8965
      5.00      1.0232      1.0232
      6.00      1.1474      1.1474
      7.00      1.2699      1.2699
      8.00      1.3891      1.3891
      9.00      1.5046      1.5046
     10.00      1.6153      1.6153
     11.00      1.7169      1.7169
     12.00      1.8087      1.8087
     13.00      1.8869      1.8869
     14.00      1.9413      1.9413
     15.00      1.9424      1.9424
     16.00      1.9235      1.9235
     17.00      1.8564      1.8564
     18.00      1.7861      1.7861
     19.00      1.6930      1.6930
     20.00      1.6027      1.6027
     21.00      1.5407      1.5407
     22.00      1.4829      1.4829
     23.00      1.4254      1.4254
     24.00      1.3698      1.3698
     25.00      1.3482      1.3482
     26.00      1.3308      1.3308
     27.00      1.3179      1.3179
     28.00      1.3027      1.3027
     29.00      1.2841      1.2841
     30.00      1.2656      1.2656
     31.00      1.2474      1.2474
     32.00      1.2291      1.2291
     33.00      1.2106      1.2106
     34.00      1.1914      1.1914
     35.00      1.1720      1.1720
     36.00      1.1536      1.1536
     37.00      1.1369      1.1369
     38.00      1.1210      1.1210
     39.00      1.1056      1.1056
     40.00      1.0906      1.0906
     41.00      1.0760      1.0760
     42.00      1.0618      1.0618
     43.00      1.0485      1.0485
     44.00      1.0356      1.0356
     45.00      1.0214      1.0214
     46.00      1.0045      1.0045
     47.00      0.9857      0.9857
     48.00      0.9666      0.9666
     49.00      0.9478      0.9478
     50.00      0.9287      0.9287
     51.00      0.9093      0.9093
     52.00      0.8897      0.8897
     53.00      0.8697      0.8697
     54.00      0.8496      0.8496
     55.00      0.8294      0.8294
     56.00      0.8090      0.8090
     57.00      0.7882      0.7882
     58.00      0.7669      0.7669
     59.00      0.7453      0.7453
     60.00      0.7235      0.7235
     61.00      0.7014      0.7014
     62.00      0.6790      0.6790
     63.00      0.6565      0.6565
     64.00      0.6337      0.6337
     65.00      0.6107      0.6107
     66.00      0.5875      0.5875
     67.00      0.5641      0.5641
     68.00      0.5404      0.5404
     69.00      0.5164      0.5164
     70.00      0.4922      0.4922
     71.00      0.4678      0.4678
     72.00      0.4432      0.4432
     73.00      0.4186      0.4186
     74.00      0.3939      0.3939
     75.00      0.3691      0.3691
     76.00      0.3442      0.3442
     77.00      0.3193      0.3193
     78.00      0.2943      0.2943
     79.00      0.2692      0.2692
     80.00      0.2442      0.2442
     81.00      0.2192      0.2192
     82.00      0.1943      0.1943
     83.00      0.1696      0.1696
     84.00      0.1449      0.1449
     85.00      0.1204      0.1204
     86.00      0.0960      0.0960
     87.00      0.0717      0.0717
     88.00      0.0468      0.0468
     89.00      0.0220      0.0220
     90.00      0.0000      0.0000
     91.00     -0.0180     -0.0180
     92.00     -0.0341     -0.0341
     93.00     -0.0502     -0.0502
     94.00     -0.0672     -0.0672
     95.00     -0.0843     -0.0843
     96.00     -0.1014     -0.1014
     97.00     -0.1187     -0.1187
     98.00     -0.1360     -0.1360
     99.00     -0.1534     -0.1534
    100.00     -0.1709     -0.1709
    101.00     -0.1885     -0.1885
    102.00     -0.2060     -0.2060
    103.00     -0.2235     -0.2235
    104.00     -0.2409     -0.2409
    105.00     -0.2584     -0.2584
    106.00     -0.2757     -0.2757
    107.00     -0.2930     -0.2930
    108.00     -0.3103     -0.3103
    109.00     -0.3274     -0.3274
    110.00     -0.3446     -0.3446
    111.00     -0.3615     -0.3615
    112.00     -0.3782     -0.3782
    113.00     -0.3948     -0.3948
    114.00     -0.4113     -0.4113
    115.00     -0.4275     -0.4275
    116.00     -0.4436     -0.4436
    117.00     -0.4595     -0.4595
    118.00     -0.4753     -0.4753
    119.00     -0.4910     -0.4910
    120.00     -0.5064     -0.5064
    121.00     -0.5217     -0.5217
    122.00     -0.5369     -0.5369
    123.00     -0.5517     -0.5517
    124.00     -0.5663     -0.5663
    125.00     -0.5806     -0.5806
    126.00     -0.5947     -0.5947
    127.00     -0.6088     -0.6088
    128.00     -0.6228     -0.6228
    129.00     -0.6365     -0.6365
    130.00     -0.6501     -0.6501
    131.00     -0.6634     -0.6634
    132.00     -0.6766     -0.6766
    133.00     -0.6896     -0.6896
    134.00     -0.7023     -0.7023
    135.00     -0.7150     -0.7150
    136.00     -0.7276     -0.7276
    137.00     -0.7402     -0.7402
    138.00     -0.7528     -0.7528
    139.00     -0.7656     -0.7656
    140.00     -0.7784     -0.7784
    141.00     -0.7913     -0.7913
    142.00     -0.8043     -0.8043
    143.00     -0.8174     -0.8174
    144.00     -0.8310     -0.8310
    145.00     -0.8486     -0.8486
    146.00     -0.8668     -0.8668
    147.00     -0.8751     -0.8751
    148.00     -0.8686     -0.8686
    149.00     -0.8529     -0.8529
    150.00     -0.8342     -0.8342
    151.00     -0.8106     -0.8106
    152.00     -0.7807     -0.7807
    153.00     -0.7508     -0.7508
    154.00     -0.7230     -0.7230
    155.00     -0.6952     -0.6952
    156.00     -0.6674     -0.6674
    157.00     -0.6396     -0.6396
    158.00     -0.6117     -0.6117
    159.00     -0.5839     -0.5839
    160.00     -0.5561     -0.5561
    161.00     -0.5283     -0.5283
    162.00     -0.5005     -0.5005
    163.00     -0.4727     -0.4727
    164.00     -0.4449     -0.4449
    165.00     -0.4171     -0.4171
    166.00     -0.3893     -0.3893
    167.00     -0.3615     -0.3615
    168.00     -0.3337     -0.3337
    169.00     -0.3059     -0.3059
    170.00     -0.2781     -0.2781
    171.00     -0.2503     -0.2503
    172.00     -0.2225     -0.2225
    173.00     -0.1946     -0.1946
    174.00     -0.1668     -0.1668
    175.00     -0.1390     -0.1390
    176.00     -0.1112     -0.1112
    177.00     -0.0834     -0.0834
    178.00     -0.0556     -0.0556
    179.00     -0.0278     -0.0278
    180.00     -0.0000     -0.0000
                0.0000      1.0000
   -180.00      0.0196      0.0196
   -179.00      0.0198      0.0198
   -178.00      0.0202      0.0202
   -177.00      0.0208      0.0208
   -176.00      0.0216      0.0216
   -175.00      0.0227      0.0227
   -174.00      0.0240      0.0240
   -173.00      0.0254      0.0254
   -172.00      0.0271      0.0271
   -171.00      0.0292      0.0292
   -170.00      0.0321      0.0321
   -169.00      0.0362      0.0362
   -168.00      0.0414      0.0414
   -167.00      0.0497      0.0497
   -166.00      0.0611      0.0611
   -165.00      0.0732      0.0732
   -164.00      0.0853      0.0853
   -163.00      0.0981      0.0981
   -162.00      0.1116      0.1116
   -161.00      0.1258      0.1258
   -160.00      0.1407      0.1407
   -159.00      0.1561      0.1561
   -158.00      0.1722      0.1722
   -157.00      0.1890      0.1890
   -156.00      0.2062      0.2062
   -155.00      0.2239      0.2239
   -154.00      0.2421      0.2421
   -153.00      0.2608      0.2608
   -152.00      0.2800      0.2800
   -151.00      0.2998      0.2998
   -150.00      0.3199      0.3199
   -149.00      0.3406      0.3406
   -148.00      0.3618      0.3618
   -147.00      0.3832      0.3832
   -146.00      0.4047      0.4047
   -145.00      0.4265      0.4265
   -144.00      0.4487      0.4487
   -143.00      0.4712      0.4712
   -142.00      0.4941      0.4941
   -141.00      0.5171      0.5171
   -140.00      0.5402      0.5402
   -139.00      0.5634      0.5634
   -138.00      0.5867      0.5867
   -137.00      0.6101      0.6101
   -136.00      0.6336      0.6336
   -135.00      0.6571      0.6571
   -134.00      0.6806      0.6806
   -133.00      0.7042      0.7042
   -132.00      0.7276      0.7276
   -131.00      0.7509      0.7509
   -130.00      0.7741      0.7741
   -129.00      0.7972      0.7972
   -128.00      0.8201      0.8201
   -127.00      0.8428      0.8428
   -126.00      0.8654      0.8654
   -125.00      0.8878      0.8878
   -124.00      0.9101      0.9101
   -123.00      0.9319      0.9319
   -122.00      0.9532      0.9532
   -121.00      0.9741      0.9741
   -120.00      0.9945      0.9945
   -119.00      1.0146      1.0146
   -118.00      1.0343      1.0343
   -117.00      1.0536      1.0536
   -116.00      1.0726      1.0726
   -115.00      1.0911      1.0911
   -114.00      1.1091      1.1091
   -113.00      1.1266      1.1266
   -112.00      1.1437      1.1437
   -111.00      1.1599      1.1599
   -110.00      1.1752      1.1752
   -109.00      1.1899      1.1899
   -108.00      1.2039      1.2039
   -107.00      1.2174      1.2174
   -106.00      1.2304      1.2304
   -105.00      1.2427      1.2427
   -104.00      1.2546      1.2546
   -103.00      1.2659      1.2659
   -102.00      1.2762      1.2762
   -101.00      1.2856      1.2856
   -100.00      1.2942      1.2942
    -99.00      1.3018      1.3018
    -98.00      1.3086      1.3086
    -97.00      1.3148      1.3148
    -96.00      1.3201      1.3201
    -95.00      1.3248      1.3248
    -94.00      1.3290      1.3290
    -93.00      1.3322      1.3322
    -92.00      1.3349      1.3349
    -91.00      1.3372      1.3372
    -90.00      1.3382      1.3382
    -89.00      1.3372      1.3372
    -88.00      1.3349      1.3349
    -87.00      1.3322      1.3322
    -86.00      1.3290      1.3290
    -85.00      1.3248      1.3248
    -84.00      1.3201      1.3201
    -83.00      1.3148      1.3148
    -82.00      1.3086      1.3086
    -81.00      1.3018      1.3018
    -80.00      1.2942      1.2942
    -79.00      1.2856      1.2856
    -78.00      1.2762      1.2762
    -77.00      1.2659      1.2659
    -76.00      1.2546      1.2546
    -75.00      1.2427      1.2427
    -74.00      1.2304      1.2304
    -73.00      1.2174      1.2174
    -72.00      1.2039      1.2039
    -71.00      1.1899      1.1899
    -70.00      1.1752      1.1752
    -69.00      1.1599      1.1599
    -68.00      1.1437      1.1437
    -67.00      1.1266      1.1266
    -66.00      1.1091      1.1091
    -65.00      1.0911      1.0911
    -64.00      1.0726      1.0726
    -63.00      1.0536      1.0536
    -62.00      1.0343      1.0343
    -61.00      1.0146      1.0146
    -60.00      0.9945      0.9945
    -59.00      0.9741      0.9741
    -58.00      0.9532      0.9532
    -57.00      0.9319      0.9319
    -56.00      0.9101      0.9101
    -55.00      0.8878      0.8878
    -54.00      0.8654      0.8654
    -53.00      0.8428      0.8428
    -52.00      0.8201      0.8201
    -51.00      0.7972      0.7972
    -50.00      0.7741      0.7741
    -49.00      0.7509      0.7509
    -48.00      0.7276      0.7276
    -47.00      0.7042      0.7042
    -46.00      0.6806      0.6806
    -45.00      0.6571      0.6571
    -44.00      0.6336      0.6336
    -43.00      0.6101      0.6101
    -42.00      0.5867      0.5867
    -41.00      0.5634      0.5634
    -40.00      0.5402      0.5402
    -39.00      0.5171      0.5171
    -38.00      0.4941      0.4941
    -37.00      0.4712      0.4712
    -36.00      0.4487      0.4487
    -35.00      0.4275      0.4275
    -34.00      0.4066      0.4066
    -33.00      0.3832      0.3832
    -32.00      0.3552      0.3552
    -31.00      0.3237      0.3237
    -30.00      0.2904      0.2904
    -29.00      0.2544      0.2544
    -28.00      0.2202      0.2202
    -27.00      0.2033      0.2033
    -26.00      0.1886      0.1886
    -25.00      0.1736      0.1736
    -24.00      0.1587      0.1587
    -23.00      0.1454      0.1454
    -22.00      0.1321      0.1321
    -21.00      0.1186      0.1186
    -20.00      0.1058      0.1058
    -19.00      0.0949      0.0949
    -18.00      0.0845      0.0845
    -17.00      0.0752      0.0752
    -16.00      0.0659      0.0659
    -15.00      0.0566      0.0566
    -14.00      0.0474      0.0474
    -13.00      0.0393      0.0393
    -12.00      0.0316      0.0316
    -11.00      0.0262      0.0262
    -10.00      0.0211      0.0211
     -9.00      0.0186      0.0186
     -8.00      0.0161      0.0161
     -7.00      0.0144      0.0144
     -6.00      0.0129      0.0129
     -5.00      0.0121      0.0121
     -4.00      0.0113      0.0113
     -3.00      0.0110      0.0110
     -2.00      0.0107      0.0107
     -1.00      0.0105      0.0105
      0.00      0.0105      0.0105
      1.00      0.0106      0.0106
      2.00      0.0107      0.0107
      3.00      0.0109      0.0109
      4.00      0.0112      0.0112
      5.00      0.0116      0.0116
      6.00      0.0121      0.0121
      7.00      0.0126      0.0126
      8.00      0.0133      0.0133
      9.00      0.0141      0.0141
     10.00      0.0151      0.0151
     11.00      0.0165      0.0165
     12.00      0.0183      0.0183
     13.00      0.0209      0.0209
     14.00      0.0250      0.0250
     15.00      0.0325      0.0325
     16.00      0.0423      0.0423
     17.00      0.0571      0.0571
     18.00      0.0724      0.0724
     19.00      0.0923      0.0923
     20.00      0.1125      0.1125
     21.00      0.1336      0.1336
     22.00      0.1548      0.1548
     23.00      0.1760      0.1760
     24.00      0.1975      0.1975
     25.00      0.2176      0.2176
     26.00      0.2376      0.2376
     27.00      0.2572      0.2572
     28.00      0.2770      0.2770
     29.00      0.2981      0.2981
     30.00      0.3192      0.3192
     31.00      0.3404      0.3404
     32.00      0.3617      0.3617
     33.00      0.3832      0.3832
     34.00      0.4048      0.4048
     35.00      0.4266      0.4266
     36.00      0.4487      0.4487
     37.00      0.4712      0.4712
     38.00      0.4941      0.4941
     39.00      0.5171      0.5171
     40.00      0.5402      0.5402
     41.00      0.5634      0.5634
     42.00      0.5867      0.5867
     43.00      0.6101      0.6101
     44.00      0.6336      0.6336
     45.00      0.6571      0.6571
     46.00      0.6806      0.6806
     47.00      0.7042      0.7042
     48.00      0.7276      0.7276
     49.00      0.7509      0.7509
     50.00      0.7741      0.7741
     51.00      0.7972      0.7972
     52.00      0.8201      0.8201
     53.00      0.8428      0.8428
     54.00      0.8654      0.8654
     55.00      0.8878      0.8878
     56.00      0.9101      0.9101
     57.00      0.9319      0.9319
     58.00      0.9532      0.9532
     59.00      0.9741      0.9741
     60.00      0.9945      0.9945
     61.00      1.0146      1.0146
     62.00      1.0343      1.0343
     63.00      1.0536      1.0536
     64.00      1.0726      1.0726
     65.00      1.0911      1.0911
     66.00      1.1091      1.1091
     67.00      1.1266      1.1266
     68.00      1.1437      1.1437
     69.00      1.1599      1.1599
     70.00      1.1752      1.1752
     71.00      1.1899      1.1899
     72.00      1.2039      1.2039
     73.00      1.2174      1.2174
     74.00      1.2304      1.2304
     75.00      1.2427      1.2427
     76.00      1.2546      1.2546
     77.00      1.2659      1.2659
     78.00      1.2762      1.2762
     79.00      1.2856      1.2856
     80.00      1.2942      1.2942
     81.00      1.3018      1.3018
     82.00      1.3086      1.3086
     83.00      1.3148      1.3148
     84.00      1.3201      1.3201
     85.00      1.3248      1.3248
     86.00      1.3290      1.3290
     87.00      1.3322      1.3322
     88.00      1.3349      1.3349
     89.00      1.3372      1.3372
     90.00      1.3382      1.3382
     91.00      1.3372      1.3372
     92.00      1.3349      1.3349
     93.00      1.3322      1.3322
     94.00      1.3290      1.3290
     95.00      1.3248      1.3248
     96.00      1.3201      1.3201
     97.00      1.3148      1.3148
     98.00      1.3086      1.3086
     99.00      1.3018      1.3018
    100.00      1.2942      1.2942
    101.00      1.2856      1.2856
    102.00      1.2762      1.2762
    103.00      1.2659      1.2659
    104.00      1.2546      1.2546
    105.00      1.2427      1.2427
    106.00      1.2304      1.2304
    107.00      1.2174      1.2174
    108.00      1.2039      1.2039
    109.00      1.1899      1.1899
    110.00      1.1752      1.1752
    111.00      1.1599      1.1599
    112.00      1.1437      1.1437
    113.00      1.1266      1.1266
    114.00      1.1091      1.1091
    115.00      1.0911      1.0911
    116.00      1.0726      1.0726
    117.00      1.0536      1.0536
    118.00      1.0343      1.0343
    119.00      1.0146      1.0146
    120.00      0.9945      0.9945
    121.00      0.9741      0.9741
    122.00      0.9532      0.9532
    123.00      0.9319      0.9319
    124.00      0.9101      0.9101
    125.00      0.8878      0.8878
    126.00      0.8654      0.8654
    127.00      0.8428      0.8428
    128.00      0.8201      0.8201
    129.00      0.7972      0.7972
    130.00      0.7741      0.7741
    131.00      0.7509      0.7509
    132.00      0.7276      0.7276
    133.00      0.7042      0.7042
    134.00      0.6806      0.6806
    135.00      0.6571      0.6571
    136.00      0.6336      0.6336
    137.00      0.6101      0.6101
    138.00      0.5867      0.5867
    139.00      0.5634      0.5634
    140.00      0.5402      0.5402
    141.00      0.5171      0.5171
    142.00      0.4941      0.4941
    143.00      0.4712      0.4712
    144.00      0.4487      0.4487
    145.00      0.4265      0.4265
    146.00      0.4047      0.4047
    147.00      0.3832      0.3832
    148.00      0.3618      0.3618
    149.00      0.3406      0.3406
    150.00      0.3199      0.3199
    151.00      0.2998      0.2998
    152.00      0.2800      0.2800
    153.00      0.2608      0.2608
    154.00      0.2421      0.2421
    155.00      0.2239      0.2239
    156.00      0.2062      0.2062
    157.00      0.1890      0.1890
    158.00      0.1722      0.1722
    159.00      0.1561      0.1561
    160.00      0.1407      0.1407
    161.00      0.1258      0.1258
    162.00      0.1116      0.1116
    163.00      0.0981      0.0981
    164.00      0.0853      0.0853
    165.00      0.0732      0.0732
    166.00      0.0611      0.0611
    167.00      0.0497      0.0497
    168.00      0.0414      0.0414
    169.00      0.0362      0.0362
    170.00      0.0321      0.0321
    171.00      0.0292      0.0292
    172.00      0.0271      0.0271
    173.00      0.0254      0.0254
    174.00      0.0240      0.0240
    175.00      0.0227      0.0227
    176.00      0.0216      0.0216
    177.00      0.0208      0.0208
    178.00      0.0202      0.0202
    179.00      0.0198      0.0198
    180.00      0.0196      0.0196
                0.0000      1.0000
   -180.00      0.0000      0.0000
   -179.00      0.0400      0.0400
   -178.00      0.0800      0.0800
   -177.00      0.1200      0.1200
   -176.00      0.1600      0.1600
   -175.00      0.2000      0.2000
   -174.00      0.2400      0.2400
   -173.00      0.2845      0.2845
   -172.00      0.3289      0.3289
   -171.00      0.3600      0.3600
   -170.00      0.3792      0.3792
   -169.00      0.3939      0.3939
   -168.00      0.3997      0.3997
   -167.00      0.3997      0.3997
   -166.00      0.3995      0.3995
   -165.00      0.3994      0.3994
   -164.00      0.3992      0.3992
   -163.00      0.3990      0.3990
   -162.00      0.3990      0.3990
   -161.00      0.4000      0.4000
   -160.00      0.4026      0.4026
   -159.00      0.4061      0.4061
   -158.00      0.4118      0.4118
   -157.00      0.4200      0.4200
   -156.00      0.4282      0.4282
   -155.00      0.4357      0.4357
   -154.00      0.4431      0.4431
   -153.00      0.4503      0.4503
   -152.00      0.4585      0.4585
   -151.00      0.4663      0.4663
   -150.00      0.4699      0.4699
   -149.00      0.4688      0.4688
   -148.00      0.4664      0.4664
   -147.00      0.4638      0.4638
   -146.00      0.4612      0.4612
   -145.00      0.4582      0.4582
   -144.00      0.4553      0.4553
   -143.00      0.4525      0.4525
   -142.00      0.4497      0.4497
   -141.00      0.4472      0.4472
   -140.00      0.4450      0.4450
   -139.00      0.4431      0.4431
   -138.00      0.4414      0.4414
   -137.00      0.4399      0.4399
   -136.00      0.4385      0.4385
   -135.00      0.4371      0.4371
   -134.00      0.4355      0.4355
   -133.00      0.4339      0.4339
   -132.00      0.4328      0.4328
   -131.00      0.4322      0.4322
   -130.00      0.4317      0.4317
   -129.00      0.4315      0.4315
   -128.00      0.4315      0.4315
   -127.00      0.4315      0.4315
   -126.00      0.4316      0.4316
   -125.00      0.4319      0.4319
   -124.00      0.4323      0.4323
   -123.00      0.4328      0.4328
   -122.00      0.4333      0.4333
   -121.00      0.4338      0.4338
   -120.00      0.4343      0.4343
   -119.00      0.4348      0.4348
   -118.00      0.4354      0.4354
   -117.00      0.4359      0.4359
   -116.00      0.4365      0.4365
   -115.00      0.4371      0.4371
   -114.00      0.4377      0.4377
   -113.00      0.4384      0.4384
   -112.00      0.4391      0.4391
   -111.00      0.4394      0.4394
   -110.00      0.4394      0.4394
   -109.00      0.4393      0.4393
   -108.00      0.4392      0.4392
   -107.00      0.4391      0.4391
   -106.00      0.4389      0.4389
   -105.00      0.4386      0.4386
   -104.00      0.4383      0.4383
   -103.00      0.4380      0.4380
   -102.00      0.4376      0.4376
   -101.00      0.4369      0.4369
   -100.00      0.4361      0.4361
    -99.00      0.4351      0.4351
    -98.00      0.4339      0.4339
    -97.00      0.4324      0.4324
    -96.00      0.4308      0.4308
    -95.00      0.4293      0.4293
    -94.00      0.4276      0.4276
    -93.00      0.4260      0.4260
    -92.00      0.4245      0.4245
    -91.00      0.4230      0.4230
    -90.00      0.4212      0.4212
    -89.00      0.4183      0.4183
    -88.00      0.4147      0.4147
    -87.00      0.4111      0.4111
    -86.00      0.4078      0.4078
    -85.00      0.4044      0.4044
    -84.00      0.4010      0.4010
    -83.00      0.3976      0.3976
    -82.00      0.3942      0.3942
    -81.00      0.3906      0.3906
    -80.00      0.3868      0.3868
    -79.00      0.3828      0.3828
    -78.00      0.3787      0.3787
    -77.00      0.3745      0.3745
    -76.00      0.3702      0.3702
    -75.00      0.3659      0.3659