IEA-15-240-RWT_AeroDyn15_Polar_19; 2 361 2 361 2 361
                0.0000      1.0000
   -180.00      0.0000      0.0000
   -179.00      0.0294      0.0294
   -178.00      0.0588      0.0588
   -177.00      0.0882      0.0882
   -176.00      0.1176      0.1176
   -175.00      0.1470      0.1470
   -174.00      0.1764      0.1764
   -173.00      0.2058      0.2058
   -172.00      0.2352      0.2352
   -171.00      0.2646      0.2646
   -170.00      0.2940      0.2940
   -169.00      0.3234      0.3234
   -168.00      0.3528      0.3528
   -167.00      0.3822      0.3822
   -166.00      0.4116      0.4116
   -165.00      0.4410      0.4410
   -164.00      0.4704      0.4704
   -163.00      0.4998      0.4998
   -162.00      0.5292      0.5292
   -161.00      0.5586      0.5586
   -160.00      0.5880      0.5880
   -159.00      0.6174      0.6174
   -158.00      0.6468      0.6468
   -157.00      0.6762      0.6762
   -156.00      0.7056      0.7056
   -155.00      0.7350      0.7350
   -154.00      0.7644      0.7644
   -153.00      0.7938      0.7938
   -152.00      0.8256      0.8256
   -151.00      0.8574      0.8574
   -150.00      0.8820      0.8820
   -149.00      0.9008      0.9008
   -148.00      0.9163      0.9163
   -147.00      0.9227      0.9227
   -146.00      0.9125      0.9125
   -145.00      0.8901      0.8901
   -144.00      0.8685      0.8685
   -143.00      0.8520      0.8520
   -142.00      0.8361      0.8361
   -141.00      0.8204      0.8204
   -140.00      0.8049      0.8049
   -139.00      0.7895      0.7895
   -138.00      0.7743      0.7743
   -137.00      0.7592      0.7592
   -136.00      0.7443      0.7443
   -135.00      0.7295      0.7295
   -134.00      0.7148      0.7148
   -133.00      0.7002      0.7002
   -132.00      0.6857      0.6857
   -131.00      0.6712      0.6712
   -130.00      0.6567      0.6567
   -129.00      0.6421      0.6421
   -128.00      0.6275      0.6275
   -127.00      0.6127      0.6127
   -126.00      0.5978      0.5978
   -125.00      0.5828      0.5828
   -124.00      0.5678      0.5678
   -123.00      0.5525      0.5525
   -122.00      0.5371      0.5371
   -121.00      0.5214      0.5214
   -120.00      0.5056      0.5056
   -119.00      0.4896      0.4896
   -118.00      0.4735      0.4735
   -117.00      0.4573      0.4573
   -116.00      0.4410      0.4410
   -115.00      0.4246      0.4246
   -114.00      0.4081      0.4081
   -113.00      0.3914      0.3914
   -112.00      0.3746      0.3746
   -111.00      0.3576      0.3576
   -110.00      0.3406      0.3406
   -109.00      0.3234      0.3234
   -108.00      0.3062      0.3062
   -107.00      0.2889      0.2889
   -106.00      0.2716      0.2716
   -105.00      0.2543      0.2543
   -104.00      0.2370      0.2370
   -103.00      0.2196      0.2196
   -102.00      0.2022      0.2022
   -101.00      0.1848      0.1848
   -100.00      0.1675      0.1675
    -99.00      0.1503      0.1503
    -98.00      0.1331      0.1331
    -97.00      0.1161      0.1161
    -96.00      0.0991      0.0991
    -95.00      0.0823      0.0823
    -94.00      0.0655      0.0655
    -93.00      0.0489      0.0489
    -92.00      0.0325      0.0325
    -91.00      0.0163      0.0163
    -90.00     -0.0000     -0.0000
    -89.00     -0.0163     -0.0163
    -88.00     -0.0325     -0.0325
    -87.00     -0.0489     -0.0489
    -86.00     -0.0655     -0.0655
    -85.00     -0.0823     -0.0823
    -84.00     -0.0991     -0.0991
    -83.00     -0.1161     -0.1161
    -82.00     -0.1331     -0.1331
    -81.00     -0.1503     -0.1503
    -80.00     -0.1675     -0.1675
    -79.00     -0.1848     -0.1848
    -78.00     -0.2022     -0.2022
    -77.00     -0.2196     -0.2196
    -76.00     -0.2370     -0.2370
    -75.00     -0.2543     -0.2543
    -74.00     -0.2716     -0.2716
    -73.00     -0.2889     -0.2889
    -72.00     -0.3062     -0.3062
    -71.00     -0.3234     -0.3234
    -70.00     -0.3406     -0.3406
    -69.00     -0.3576     -0.3576
    -68.00     -0.3746     -0.3746
    -67.00     -0.3914     -0.3914
    -66.00     -0.4081     -0.4081
    -65.00     -0.4246     -0.4246
    -64.00     -0.4410     -0.4410
    -63.00     -0.4573     -0.4573
    -62.00     -0.4735     -0.4735
    -61.00     -0.4896     -0.4896
    -60.00     -0.5056     -0.5056
    -59.00     -0.5214     -0.5214
    -58.00     -0.5371     -0.5371
    -57.00     -0.5525     -0.5525
    -56.00     -0.5678     -0.5678
    -55.00     -0.5828     -0.5828
    -54.00     -0.5978     -0.5978
    -53.00     -0.6127     -0.6127
    -52.00     -0.6275     -0.6275
    -51.00     -0.6421     -0.6421
    -50.00     -0.6567     -0.6567
    -49.00     -0.6712     -0.6712
    -48.00     -0.6857     -0.6857
    -47.00     -0.6997     -0.6997
    -46.00     -0.7137     -0.7137
    -45.00     -0.7295     -0.7295
    -44.00     -0.7490     -0.7490
    -43.00     -0.7712     -0.7712
    -42.00     -0.7931     -0.7931
    -41.00     -0.8138     -0.8138
    -40.00     -0.8342     -0.8342
    -39.00     -0.8544     -0.8544
    -38.00     -0.8742     -0.8742
    -37.00     -0.8939     -0.8939
    -36.00     -0.9139     -0.9139
    -35.00     -0.9329     -0.9329
    -34.00     -0.9521     -0.9521
    -33.00     -0.9757     -0.9757
    -32.00     -1.0088     -1.0088
    -31.00     -1.0502     -1.0502
    -30.00     -1.0942     -1.0942
    -29.00     -1.1403     -1.1403
    -28.00     -1.1810     -1.1810
    -27.00     -1.1853     -1.1853
    -26.00     -1.1846     -1.1846
    -25.00     -1.1831     -1.1831
    -24.00     -1.1789     -1.1789
    -23.00     -1.1706     -1.1706
    -22.00     -1.1608     -1.1608
    -21.00     -1.1525     -1.1525
    -20.00     -1.1471     -1.1471
    -19.00     -1.1399     -1.1399
    -18.00     -1.1317     -1.1317
    -17.00     -1.1209     -1.1209
    -16.00     -1.1098     -1.1098
    -15.00     -1.1011     -1.1011
    -14.00     -1.0922     -1.0922
    -13.00     -1.0806     -1.0806
    -12.00     -1.0622     -1.0622
    -11.00     -0.9915     -0.9915
    -10.00     -0.9137     -0.9137
     -9.00     -0.8013     -0.8013
     -8.00     -0.6883     -0.6883
     -7.00     -0.5688     -0.5688
     -6.00     -0.4461     -0.4461
     -5.00     -0.3100     -0.3100
     -4.00     -0.1718     -0.1718
     -3.00     -0.0287     -0.0287
     -2.00      0.1146      0.1146
     -1.00      0.2569      0.2569
      0.00      0.3974      0.3974
      1.00      0.5360      0.5360
      2.00      0.6725      0.6725
      3.00      0.8070      0.8070
      4.00      0.9399      0.9399
      5.00      1.0705      1.0705
      6.00      1.1990      1.1990
      7.00      1.3252      1.3252
      8.00      1.4474      1.4474
      9.00      1.5656      1.5656
     10.00      1.6785      1.6785
     11.00      1.7832      1.7832
     12.00      1.8749      1.8749
     13.00      1.9487      1.9487
     14.00      1.9901      1.9901
     15.00      2.0098      2.0098
     16.00      2.0124      2.0124
     17.00      1.9943      1.9943
     18.00      1.9718      1.9718
     19.00      1.8986      1.8986
     20.00      1.8243      1.8243
     21.00      1.7630      1.7630
     22.00      1.7036      1.7036
     23.00      1.6439      1.6439
     24.00      1.5855      1.5855
     25.00      1.5611      1.5611
     26.00      1.5349      1.5349
     27.00      1.5074      1.5074
     28.00      1.4799      1.4799
     29.00      1.4628      1.4628
     30.00      1.4441      1.4441
     31.00      1.4233      1.4233
     32.00      1.4014      1.4014
     33.00      1.3775      1.3775
     34.00      1.3502      1.3502
     35.00      1.3204      1.3204
     36.00      1.2911      1.2911
     37.00      1.2636      1.2636
     38.00      1.2366      1.2366
     39.00      1.2095      1.2095
     40.00      1.1821      1.1821
     41.00      1.1545      1.1545
     42.00      1.1268      1.1268
     43.00      1.0977      1.0977
     44.00      1.0685      1.0685
     45.00      1.0421      1.0421
     46.00      1.0198      1.0198
     47.00      0.9997      0.9997
     48.00      0.9796      0.9796
     49.00      0.9589      0.9589
     50.00      0.9382      0.9382
     51.00      0.9173      0.9173
     52.00      0.8964      0.8964
     53.00      0.8753      0.8753
     54.00      0.8540      0.8540
     55.00      0.8326      0.8326
     56.00      0.8111      0.8111
     57.00      0.7893      0.7893
     58.00      0.7672      0.7672
     59.00      0.7448      0.7448
     60.00      0.7222      0.7222
     61.00      0.6995      0.6995
     62.00      0.6765      0.6765
     63.00      0.6534      0.6534
     64.00      0.6301      0.6301
     65.00      0.6066      0.6066
     66.00      0.5830      0.5830
     67.00      0.5591      0.5591
     68.00      0.5351      0.5351
     69.00      0.5109      0.5109
     70.00      0.4866      0.4866
     71.00      0.4620      0.4620
     72.00      0.4374      0.4374
     73.00      0.4128      0.4128
     74.00      0.3880      0.3880
     75.00      0.3633      0.3633
     76.00      0.3385      0.3385
     77.00      0.3137      0.3137
     78.00      0.2889      0.2889
     79.00      0.2641      0.2641
     80.00      0.2393      0.2393
     81.00      0.2147      0.2147
     82.00      0.1902      0.1902
     83.00      0.1658      0.1658
     84.00      0.1416      0.1416
     85.00      0.1175      0.1175
     86.00      0.0936      0.0936
     87.00      0.0699      0.0699
     88.00      0.0456      0.0456
     89.00      0.0214      0.0214
     90.00      0.0000      0.0000
     91.00     -0.0176     -0.0176
     92.00     -0.0332     -0.0332
     93.00     -0.0489     -0.0489
     94.00     -0.0655     -0.0655
     95.00     -0.0823     -0.0823
     96.00     -0.0991     -0.0991
     97.00     -0.1161     -0.1161
     98.00     -0.1331     -0.1331
     99.00     -0.1503     -0.1503
    100.00     -0.1675     -0.1675
    101.00     -0.1848     -0.1848
    102.00     -0.2022     -0.2022
    103.00     -0.2196     -0.2196
    104.00     -0.2370     -0.2370
    105.00     -0.2543     -0.2543
    106.00     -0.2716     -0.2716
    107.00     -0.2889     -0.2889
    108.00     -0.3062     -0.3062
    109.00     -0.3234     -0.3234
    110.00     -0.3406     -0.3406
    111.00     -0.3576     -0.3576
    112.00     -0.3746     -0.3746
    113.00     -0.3914     -0.3914
    114.00     -0.4081     -0.4081
    115.00     -0.4246     -0.4246
    116.00     -0.4410     -0.4410
    117.00     -0.4573     -0.4573
    118.00     -0.4735     -0.4735
    119.00     -0.4896     -0.4896
    120.00     -0.5056     -0.5056
    121.00     -0.5214     -0.5214
    122.00     -0.5371     -0.5371
    123.00     -0.5525     -0.5525
    124.00     -0.5678     -0.5678
    125.00     -0.5828     -0.5828
    126.00     -0.5978     -0.5978
    127.00     -0.6127     -0.6127
    128.00     -0.6275     -0.6275
    129.00     -0.6421     -0.6421
    130.00     -0.6567     -0.6567
    131.00     -0.6712     -0.6712
    132.00     -0.6857     -0.6857
    133.00     -0.7002     -0.7002
    134.00     -0.7148     -0.7148
    135.00     -0.7295     -0.7295
    136.00     -0.7443     -0.7443
    137.00     -0.7592     -0.7592
    138.00     -0.7743     -0.7743
    139.00     -0.7895     -0.7895
    140.00     -0.8049     -0.8049
    141.00     -0.8204     -0.8204
    142.00     -0.8361     -0.8361
    143.00     -0.8520     -0.8520
    144.00     -0.8685     -0.8685
    145.00     -0.8901     -0.8901
    146.00     -0.9125     -0.9125
    147.00     -0.9227     -0.9227
    148.00     -0.9163     -0.9163
    149.00     -0.9008     -0.9008
    150.00     -0.8820     -0.8820
    151.00     -0.8574     -0.8574
    152.00     -0.8256     -0.8256
    153.00     -0.7938     -0.7938
    154.00     -0.7644     -0.7644
    155.00     -0.7350     -0.7350
    156.00     -0.7056     -0.7056
    157.00     -0.6762     -0.6762
    158.00     -0.6468     -0.6468
    159.00     -0.6174     -0.6174
    160.00     -0.5880     -0.5880
    161.00     -0.5586     -0.5586
    162.00     -0.5292     -0.5292
    163.00     -0.4998     -0.4998
    164.00     -0.4704     -0.4704
    165.00     -0.4410     -0.4410
    166.00     -0.4116     -0.4116
    167.00     -0.3822     -0.3822
    168.00     -0.3528     -0.3528
    169.00     -0.3234     -0.3234
    170.00     -0.2940     -0.2940
    171.00     -0.2646     -0.2646
    172.00     -0.2352     -0.2352
    173.00     -0.2058     -0.2058
    174.00     -0.1764     -0.1764
    175.00     -0.1470     -0.1470
    176.00     -0.1176     -0.1176
    177.00     -0.0882     -0.0882
    178.00     -0.0588     -0.0588
    179.00     -0.0294     -0.0294
    180.00      0.0000      0.0000
                0.0000      1.0000
   -180.00      0.0280      0.0280
   -179.00      0.0282      0.0282
   -178.00      0.0286      0.0286
   -177.00      0.0292      0.0292
   -176.00      0.0299      0.0299
   -175.00      0.0310      0.0310
   -174.00      0.0323      0.0323
   -173.00      0.0336      0.0336
   -172.00      0.0353      0.0353
   -171.00      0.0372      0.0372
   -170.00      0.0396      0.0396
   -169.00      0.0426      0.0426
   -168.00      0.0465      0.0465
   -167.00      0.0531      0.0531
   -166.00      0.0625      0.0625
   -165.00      0.0729      0.0729
   -164.00      0.0840      0.0840
   -163.00      0.0965      0.0965
   -162.00      0.1097      0.1097
   -161.00      0.1233      0.1233
   -160.00      0.1377      0.1377
   -159.00      0.1527      0.1527
   -158.00      0.1682      0.1682
   -157.00      0.1845      0.1845
   -156.00      0.2012      0.2012
   -155.00      0.2183      0.2183
   -154.00      0.2361      0.2361
   -153.00      0.2542      0.2542
   -152.00      0.2729      0.2729
   -151.00      0.2920      0.2920
   -150.00      0.3116      0.3116
   -149.00      0.3317      0.3317
   -148.00      0.3522      0.3522
   -147.00      0.3730      0.3730
   -146.00      0.3939      0.3939
   -145.00      0.4151      0.4151
   -144.00      0.4366      0.4366
   -143.00      0.4585      0.4585
   -142.00      0.4807      0.4807
   -141.00      0.5030      0.5030
   -140.00      0.5254      0.5254
   -139.00      0.5480      0.5480
   -138.00      0.5706      0.5706
   -137.00      0.5933      0.5933
   -136.00      0.6161      0.6161
   -135.00      0.6389      0.6389
   -134.00      0.6618      0.6618
   -133.00      0.6846      0.6846
   -132.00      0.7074      0.7074
   -131.00      0.7301      0.7301
   -130.00      0.7526      0.7526
   -129.00      0.7750      0.7750
   -128.00      0.7972      0.7972
   -127.00      0.8193      0.8193
   -126.00      0.8412      0.8412
   -125.00      0.8630      0.8630
   -124.00      0.8846      0.8846
   -123.00      0.9057      0.9057
   -122.00      0.9264      0.9264
   -121.00      0.9467      0.9467
   -120.00      0.9666      0.9666
   -119.00      0.9861      0.9861
   -118.00      1.0052      1.0052
   -117.00      1.0240      1.0240
   -116.00      1.0423      1.0423
   -115.00      1.0603      1.0603
   -114.00      1.0778      1.0778
   -113.00      1.0948      1.0948
   -112.00      1.1114      1.1114
   -111.00      1.1271      1.1271
   -110.00      1.1420      1.1420
   -109.00      1.1562      1.1562
   -108.00      1.1698      1.1698
   -107.00      1.1829      1.1829
   -106.00      1.1955      1.1955
   -105.00      1.2075      1.2075
   -104.00      1.2190      1.2190
   -103.00      1.2300      1.2300
   -102.00      1.2400      1.2400
   -101.00      1.2491      1.2491
   -100.00      1.2574      1.2574
    -99.00      1.2648      1.2648
    -98.00      1.2714      1.2714
    -97.00      1.2774      1.2774
    -96.00      1.2825      1.2825
    -95.00      1.2871      1.2871
    -94.00      1.2911      1.2911
    -93.00      1.2943      1.2943
    -92.00      1.2969      1.2969
    -91.00      1.2991      1.2991
    -90.00      1.3000      1.3000
    -89.00      1.2991      1.2991
    -88.00      1.2969      1.2969
    -87.00      1.2943      1.2943
    -86.00      1.2911      1.2911
    -85.00      1.2871      1.2871
    -84.00      1.2825      1.2825
    -83.00      1.2774      1.2774
    -82.00      1.2714      1.2714
    -81.00      1.2648      1.2648
    -80.00      1.2574      1.2574
    -79.00      1.2491      1.2491
    -78.00      1.2400      1.2400
    -77.00      1.2300      1.2300
    -76.00      1.2190      1.2190
    -75.00      1.2075      1.2075
    -74.00      1.1955      1.1955
    -73.00      1.1829      1.1829
    -72.00      1.1698      1.1698
    -71.00      1.1562      1.1562
    -70.00      1.1420      1.1420
    -69.00      1.1271      1.1271
    -68.00      1.1114      1.1114
    -67.00      1.0948      1.0948
    -66.00      1.0778      1.0778
    -65.00      1.0603      1.0603
    -64.00      1.0423      1.0423
    -63.00      1.0240      1.0240
    -62.00      1.0052      1.0052
    -61.00      0.9861      0.9861
    -60.00      0.9666      0.9666
    -59.00      0.9467      0.9467
    -58.00      0.9264      0.9264
    -57.00      0.9057      0.9057
    -56.00      0.8846      0.8846
    -55.00      0.8630      0.8630
    -54.00      0.8412      0.8412
    -53.00      0.8193      0.8193
    -52.00      0.7972      0.7972
    -51.00      0.7750      0.7750
    -50.00      0.7526      0.7526
    -49.00      0.7301      0.7301
    -48.00      0.7074      0.7074
    -47.00      0.6846      0.6846
    -46.00      0.6618      0.6618
    -45.00      0.6389      0.6389
    -44.00      0.6161      0.6161
    -43.00      0.5933      0.5933
    -42.00      0.5706      0.5706
    -41.00      0.5480      0.5480
    -40.00      0.5254      0.5254
    -39.00      0.5030      0.5030
    -38.00      0.4807      0.4807
    -37.00      0.4585      0.4585
    -36.00      0.4366      0.4366
    -35.00      0.4160      0.4160
    -34.00      0.3958      0.3958
    -33.00      0.3730      0.3730
    -32.00      0.3454      0.3454
    -31.00      0.3142      0.3142
    -30.00      0.2813      0.2813
    -29.00      0.2466      0.2466
    -28.00      0.2143      0.2143
    -27.00      0.1973      0.1973
    -26.00      0.1825      0.1825
    -25.00      0.1677      0.1677
    -24.00      0.1530      0.1530
    -23.00      0.1408      0.1408
    -22.00      0.1287      0.1287
    -21.00      0.1167      0.1167
    -20.00      0.1044      0.1044
    -19.00      0.0939      0.0939
    -18.00      0.0837      0.0837
    -17.00      0.0747      0.0747
    -16.00      0.0658      0.0658
    -15.00      0.0578      0.0578
    -14.00      0.0499      0.0499
    -13.00      0.0428      0.0428
    -12.00      0.0360      0.0360
    -11.00      0.0310      0.0310
    -10.00      0.0260      0.0260
     -9.00      0.0229      0.0229
     -8.00      0.0199      0.0199
     -7.00      0.0178      0.0178
     -6.00      0.0158      0.0158
     -5.00      0.0146      0.0146
     -4.00      0.0135      0.0135
     -3.00      0.0130      0.0130
     -2.00      0.0126      0.0126
     -1.00      0.0124      0.0124
      0.00      0.0123      0.0123
      1.00      0.0123      0.0123
      2.00      0.0124      0.0124
      3.00      0.0127      0.0127
      4.00      0.0129      0.0129
      5.00      0.0133      0.0133
      6.00      0.0137      0.0137
      7.00      0.0143      0.0143
      8.00      0.0150      0.0150
      9.00      0.0159      0.0159
     10.00      0.0169      0.0169
     11.00      0.0184      0.0184
     12.00      0.0204      0.0204
     13.00      0.0234      0.0234
     14.00      0.0287      0.0287
     15.00      0.0358      0.0358
     16.00      0.0454      0.0454
     17.00      0.0576      0.0576
     18.00      0.0704      0.0704
     19.00      0.0884      0.0884
     20.00      0.1072      0.1072
     21.00      0.1281      0.1281
     22.00      0.1494      0.1494
     23.00      0.1707      0.1707
     24.00      0.1914      0.1914
     25.00      0.2118      0.2118
     26.00      0.2322      0.2322
     27.00      0.2526      0.2526
     28.00      0.2729      0.2729
     29.00      0.2926      0.2926
     30.00      0.3123      0.3123
     31.00      0.3323      0.3323
     32.00      0.3525      0.3525
     33.00      0.3730      0.3730
     34.00      0.3939      0.3939
     35.00      0.4151      0.4151
     36.00      0.4366      0.4366
     37.00      0.4585      0.4585
     38.00      0.4807      0.4807
     39.00      0.5030      0.5030
     40.00      0.5254      0.5254
     41.00      0.5480      0.5480
     42.00      0.5706      0.5706
     43.00      0.5933      0.5933
     44.00      0.6161      0.6161
     45.00      0.6389      0.6389
     46.00      0.6618      0.6618
     47.00      0.6846      0.6846
     48.00      0.7074      0.7074
     49.00      0.7301      0.7301
     50.00      0.7526      0.7526
     51.00      0.7750      0.7750
     52.00      0.7972      0.7972
     53.00      0.8193      0.8193
     54.00      0.8412      0.8412
     55.00      0.8630      0.8630
     56.00      0.8846      0.8846
     57.00      0.9057      0.9057
     58.00      0.9264      0.9264
     59.00      0.9467      0.9467
     60.00      0.9666      0.9666
     61.00      0.9861      0.9861
     62.00      1.0052      1.0052
     63.00      1.0240      1.0240
     64.00      1.0423      1.0423
     65.00      1.0603      1.0603
     66.00      1.0778      1.0778
     67.00      1.0948      1.0948
     68.00      1.1114      1.1114
     69.00      1.1271      1.1271
     70.00      1.1420      1.1420
     71.00      1.1562      1.1562
     72.00      1.1698      1.1698
     73.00      1.1829      1.1829
     74.00      1.1955      1.1955
     75.00      1.2075      1.2075
     76.00      1.2190      1.2190
     77.00      1.2300      1.2300
     78.00      1.2400      1.2400
     79.00      1.2491      1.2491
     80.00      1.2574      1.2574
     81.00      1.2648      1.2648
     82.00      1.2714      1.2714
     83.00      1.2774      1.2774
     84.00      1.2825      1.2825
     85.00      1.2871      1.2871
     86.00      1.2911      1.2911
     87.00      1.2943      1.2943
     88.00      1.2969      1.2969
     89.00      1.2991      1.2991
     90.00      1.3000      1.3000
     91.00      1.2991      1.2991
     92.00      1.2969      1.2969
     93.00      1.2943      1.2943
     94.00      1.2911      1.2911
     95.00      1.2871      1.2871
     96.00      1.2825      1.2825
     97.00      1.2774      1.2774
     98.00      1.2714      1.2714
     99.00      1.2648      1.2648
    100.00      1.2574      1.2574
    101.00      1.2491      1.2491
    102.00      1.2400      1.2400
    103.00      1.2300      1.2300
    104.00      1.2190      1.2190
    105.00      1.2075      1.2075
    106.00      1.1955      1.1955
    107.00      1.1829      1.1829
    108.00      1.1698      1.1698
    109.00      1.1562      1.1562
    110.00      1.1420      1.1420
    111.00      1.1271      1.1271
    112.00      1.1114      1.1114
    113.00      1.0948      1.0948
    114.00      1.0778      1.0778
    115.00      1.0603      1.0603
    116.00      1.0423      1.0423
    117.00      1.0240      1.0240
    118.00      1.0052      1.0052
    119.00      0.9861      0.9861
    120.00      0.9666      0.9666
    121.00      0.9467      0.9467
    122.00      0.9264      0.9264
    123.00      0.9057      0.9057
    124.00      0.8846      0.8846
    125.00      0.8630      0.8630
    126.00      0.8412      0.8412
    127.00      0.8193      0.8193
    128.00      0.7972      0.7972
    129.00      0.7750      0.7750
    130.00      0.7526      0.7526
    131.00      0.7301      0.7301
    132.00      0.7074      0.7074
    133.00      0.6846      0.6846
    134.00      0.6618      0.6618
    135.00      0.6389      0.6389
    136.00      0.6161      0.6161
    137.00      0.5933      0.5933
    138.00      0.5706      0.5706
    139.00      0.5480      0.5480
    140.00      0.5254      0.5254
    141.00      0.5030      0.5030
    142.00      0.4807      0.4807
    143.00      0.4585      0.4585
    144.00      0.4366      0.4366
    145.00      0.4151      0.4151
    146.00      0.3939      0.3939
    147.00      0.3730      0.3730
    148.00      0.3522      0.3522
    149.00      0.3317      0.3317
    150.00      0.3116      0.3116
    151.00      0.2920      0.2920
    152.00      0.2729      0.2729
    153.00      0.2542      0.2542
    154.00      0.2361      0.2361
    155.00      0.2183      0.2183
    156.00      0.2012      0.2012
    157.00      0.1845      0.1845
    158.00      0.1682      0.1682
    159.00      0.1527      0.1527
    160.00      0.1377      0.1377
    161.00      0.1233      0.1233
    162.00      0.1097      0.1097
    163.00      0.0965      0.0965
    164.00      0.0840      0.0840
    165.00      0.0729      0.0729
    166.00      0.0625      0.0625
    167.00      0.0531      0.0531
    168.00      0.0465      0.0465
    169.00      0.0426      0.0426
    170.00      0.0396      0.0396
    171.00      0.0372      0.0372
    172.00      0.0353      0.0353
    173.00      0.0336      0.0336
    174.00      0.0323      0.0323
    175.00      0.0310      0.0310
    176.00      0.0299      0.0299
    177.00      0.0292      0.0292
    178.00      0.0286      0.0286
    179.00      0.0282      0.0282
    180.00      0.0280      0.0280
                0.0000      1.0000
   -180.00      0.0000      0.0000
   -179.00      0.0400      0.0400
   -178.00      0.0800      0.0800
   -177.00      0.1200      0.1200
   -176.00      0.1600      0.1600
   -175.00      0.2000      0.2000
   -174.00      0.2400      0.2400
   -173.00      0.2842      0.2842
   -172.00      0.3284      0.3284
   -171.00      0.3600      0.3600
   -170.00      0.3799      0.3799
   -169.00      0.3953      0.3953
   -168.00      0.4029      0.4029
   -167.00      0.4049      0.4049
   -166.00      0.4061      0.4061
   -165.00      0.4074      0.4074
   -164.00      0.4087      0.4087
   -163.00      0.4100      0.4100
   -162.00      0.4118      0.4118
   -161.00      0.4143      0.4143
   -160.00      0.4178      0.4178
   -159.00      0.4221      0.4221
   -158.00      0.4282      0.4282
   -157.00      0.4362      0.4362
   -156.00      0.4441      0.4441
   -155.00      0.4516      0.4516
   -154.00      0.4591      0.4591
   -153.00      0.4662      0.4662
   -152.00      0.4742      0.4742
   -151.00      0.4820      0.4820
   -150.00      0.4854      0.4854
   -149.00      0.4837      0.4837
   -148.00      0.4799      0.4799
   -147.00      0.4758      0.4758
   -146.00      0.4718      0.4718
   -145.00      0.4674      0.4674
   -144.00      0.4630      0.4630
   -143.00      0.4587      0.4587
   -142.00      0.4544      0.4544
   -141.00      0.4506      0.4506
   -140.00      0.4473      0.4473
   -139.00      0.4445      0.4445
   -138.00      0.4419      0.4419
   -137.00      0.4397      0.4397
   -136.00      0.4377      0.4377
   -135.00      0.4357      0.4357
   -134.00      0.4334      0.4334
   -133.00      0.4311      0.4311
   -132.00      0.4294      0.4294
   -131.00      0.4282      0.4282
   -130.00      0.4272      0.4272
   -129.00      0.4265      0.4265
   -128.00      0.4259      0.4259
   -127.00      0.4255      0.4255
   -126.00      0.4253      0.4253
   -125.00      0.4253      0.4253
   -124.00      0.4254      0.4254
   -123.00      0.4254      0.4254
   -122.00      0.4255      0.4255
   -121.00      0.4256      0.4256
   -120.00      0.4257      0.4257
   -119.00      0.4259      0.4259
   -118.00      0.4262      0.4262
   -117.00      0.4266      0.4266
   -116.00      0.4269      0.4269
   -115.00      0.4273      0.4273
   -114.00      0.4277      0.4277
   -113.00      0.4282      0.4282
   -112.00      0.4287      0.4287
   -111.00      0.4289      0.4289
   -110.00      0.4288      0.4288
   -109.00      0.4287      0.4287
   -108.00      0.4285      0.4285
   -107.00      0.4283      0.4283
   -106.00      0.4281      0.4281
   -105.00      0.4278      0.4278
   -104.00      0.4275      0.4275
   -103.00      0.4271      0.4271
   -102.00      0.4267      0.4267
   -101.00      0.4261      0.4261
   -100.00      0.4252      0.4252
    -99.00      0.4243      0.4243
    -98.00      0.4231      0.4231
    -97.00      0.4217      0.4217
    -96.00      0.4202      0.4202
    -95.00      0.4187      0.4187
    -94.00      0.4172      0.4172
    -93.00      0.4156      0.4156
    -92.00      0.4142      0.4142
    -91.00      0.4128      0.4128
    -90.00      0.4110      0.4110
    -89.00      0.4083      0.4083
    -88.00      0.4049      0.4049
    -87.00      0.4014      0.4014
    -86.00      0.3982      0.3982
    -85.00      0.3951      0.3951
    -84.00      0.3918      0.3918
    -83.00      0.3886      0.3886
    -82.00      0.3853      0.3853
    -81.00      0.3818      0.3818
    -80.00      0.3782      0.3782
    -79.00      0.3745      0.3745
    -78.00      0.3706      0.3706
    -77.00      0.3666      0.3666
    -76.00      0.3625      0.3625
    -75.00      0.3583      0.3583